<?xml version="1.0" encoding="UTF-8"?>

<!-- generated on 2024-08-10 14:51:04 by Eclipse SUMO netgenerate Version 1.20.0
<configuration xmlns:xsi="http://www.w3.org/2001/XMLSchema-instance" xsi:noNamespaceSchemaLocation="http://sumo.dlr.de/xsd/netgenerateConfiguration.xsd">

    <grid_network>
        <grid value="false"/>
    </grid_network>

    <spider_network>
        <spider value="false"/>
    </spider_network>

    <random_network>
        <rand value="true"/>
        <rand.iterations value="300"/>
        <rand.min-angle value="20.00"/>
        <rand.grid value="false"/>
    </random_network>

    <output>
        <output-file value="C:\Users\cri98\Downloads\Random.net.xml"/>
    </output>

</configuration>
-->

<net version="1.20" junctionCornerDetail="5" limitTurnSpeed="5.50" xmlns:xsi="http://www.w3.org/2001/XMLSchema-instance" xsi:noNamespaceSchemaLocation="http://sumo.dlr.de/xsd/net_file.xsd">

    <location netOffset="1585.47,1356.32" convBoundary="0.00,0.00,3143.29,3206.75" origBoundary="-1585.47,-1356.32,1557.82,1850.43" projParameter="!"/>

    <edge id=":1_0" function="internal">
        <lane id=":1_0_0" index="0" speed="11.26" length="16.20" shape="1583.99,1363.72 1583.36,1360.50 1581.58,1357.36 1578.65,1354.29 1574.57,1351.30"/>
    </edge>
    <edge id=":1_1" function="internal">
        <lane id=":1_1_0" index="0" speed="13.89" length="18.84" shape="1583.99,1363.72 1583.68,1359.39 1582.97,1354.37 1582.07,1349.38 1581.14,1345.12"/>
    </edge>
    <edge id=":1_2" function="internal">
        <lane id=":1_2_0" index="0" speed="7.91" length="3.57" shape="1583.99,1363.72 1584.44,1360.17"/>
    </edge>
    <edge id=":1_3" function="internal">
        <lane id=":1_3_0" index="0" speed="3.65" length="1.44" shape="1583.99,1363.72 1584.77,1362.51"/>
    </edge>
    <edge id=":1_16" function="internal">
        <lane id=":1_16_0" index="0" speed="7.91" length="10.83" shape="1584.44,1360.17 1584.49,1359.77 1586.15,1357.01 1588.95,1355.42 1592.91,1355.00"/>
    </edge>
    <edge id=":1_17" function="internal">
        <lane id=":1_17_0" index="0" speed="3.65" length="3.23" shape="1584.77,1362.51 1585.57,1362.09 1586.37,1362.48 1587.19,1363.67"/>
    </edge>
    <edge id=":1_4" function="internal">
        <lane id=":1_4_0" index="0" speed="6.39" length="9.04" shape="1592.79,1358.20 1590.30,1358.46 1588.54,1359.46 1587.51,1361.19 1587.19,1363.67"/>
    </edge>
    <edge id=":1_5" function="internal">
        <lane id=":1_5_0" index="0" speed="13.89" length="19.61" shape="1592.79,1358.20 1588.43,1357.42 1583.39,1355.68 1578.50,1353.48 1574.57,1351.30"/>
    </edge>
    <edge id=":1_6" function="internal">
        <lane id=":1_6_0" index="0" speed="10.07" length="18.26" shape="1592.79,1358.20 1589.35,1356.88 1585.86,1353.73 1582.93,1349.54 1581.14,1345.12"/>
    </edge>
    <edge id=":1_7" function="internal">
        <lane id=":1_7_0" index="0" speed="3.65" length="4.67" shape="1592.79,1358.20 1591.62,1357.35 1591.25,1356.54 1591.68,1355.75 1592.91,1355.00"/>
    </edge>
    <edge id=":1_8" function="internal">
        <lane id=":1_8_0" index="0" speed="9.08" length="14.69" shape="1584.25,1344.38 1585.73,1348.94 1587.66,1352.23 1590.06,1354.25 1592.91,1355.00"/>
    </edge>
    <edge id=":1_9" function="internal">
        <lane id=":1_9_0" index="0" speed="13.89" length="19.54" shape="1584.25,1344.38 1585.19,1348.74 1586.13,1353.97 1586.86,1359.23 1587.19,1363.67"/>
    </edge>
    <edge id=":1_10" function="internal">
        <lane id=":1_10_0" index="0" speed="7.43" length="6.42" shape="1584.25,1344.38 1585.03,1350.59 1584.97,1350.73"/>
    </edge>
    <edge id=":1_11" function="internal">
        <lane id=":1_11_0" index="0" speed="3.65" length="1.44" shape="1584.25,1344.38 1583.75,1345.73"/>
    </edge>
    <edge id=":1_18" function="internal">
        <lane id=":1_18_0" index="0" speed="7.43" length="13.09" shape="1584.97,1350.73 1583.68,1353.81 1580.19,1354.05 1574.57,1351.30"/>
    </edge>
    <edge id=":1_19" function="internal">
        <lane id=":1_19_0" index="0" speed="3.65" length="3.23" shape="1583.75,1345.73 1583.07,1346.31 1582.20,1346.10 1581.14,1345.12"/>
    </edge>
    <edge id=":1_12" function="internal">
        <lane id=":1_12_0" index="0" speed="5.47" length="9.79" shape="1576.28,1348.59 1579.11,1349.97 1580.85,1349.86 1581.53,1348.24 1581.14,1345.12"/>
    </edge>
    <edge id=":1_13" function="internal">
        <lane id=":1_13_0" index="0" speed="13.89" length="17.96" shape="1576.28,1348.59 1579.96,1350.70 1584.31,1352.73 1588.80,1354.29 1592.91,1355.00"/>
    </edge>
    <edge id=":1_14" function="internal">
        <lane id=":1_14_0" index="0" speed="12.18" length="19.05" shape="1576.28,1348.59 1580.19,1351.77 1583.68,1355.83 1586.20,1360.04 1587.19,1363.67"/>
    </edge>
    <edge id=":1_15" function="internal">
        <lane id=":1_15_0" index="0" speed="3.65" length="4.67" shape="1576.28,1348.59 1576.87,1349.91 1576.78,1350.80 1576.01,1351.26 1574.57,1351.30"/>
    </edge>
    <edge id=":1005_0" function="internal">
        <lane id=":1005_0_0" index="0" speed="7.43" length="11.79" shape="1688.98,2363.27 1685.73,2361.14 1682.90,2360.23 1680.49,2360.52 1678.49,2362.03"/>
    </edge>
    <edge id=":1005_1" function="internal">
        <lane id=":1005_1_0" index="0" speed="7.38" length="17.71" shape="1688.98,2363.27 1685.16,2359.37 1684.29,2356.09 1686.39,2353.41 1691.45,2351.35"/>
    </edge>
    <edge id=":1005_2" function="internal">
        <lane id=":1005_2_0" index="0" speed="3.65" length="4.67" shape="1688.98,2363.27 1688.53,2361.90 1688.72,2361.03 1689.53,2360.65 1690.97,2360.77"/>
    </edge>
    <edge id=":1005_3" function="internal">
        <lane id=":1005_3_0" index="0" speed="5.56" length="9.40" shape="1692.28,2354.45 1689.59,2355.54 1688.48,2356.96 1688.94,2358.70 1690.97,2360.77"/>
    </edge>
    <edge id=":1005_4" function="internal">
        <lane id=":1005_4_0" index="0" speed="13.89" length="15.94" shape="1692.28,2354.45 1688.54,2355.64 1684.78,2357.29 1681.33,2359.42 1678.49,2362.03"/>
    </edge>
    <edge id=":1005_5" function="internal">
        <lane id=":1005_5_0" index="0" speed="3.65" length="1.44" shape="1692.28,2354.45 1690.91,2353.98"/>
    </edge>
    <edge id=":1005_9" function="internal">
        <lane id=":1005_9_0" index="0" speed="3.65" length="3.23" shape="1690.91,2353.98 1690.32,2353.31 1690.49,2352.44 1691.45,2351.35"/>
    </edge>
    <edge id=":1005_6" function="internal">
        <lane id=":1005_6_0" index="0" speed="13.89" length="17.83" shape="1676.05,2359.96 1679.14,2357.19 1683.15,2354.71 1687.46,2352.71 1691.45,2351.35"/>
    </edge>
    <edge id=":1005_7" function="internal">
        <lane id=":1005_7_0" index="0" speed="8.76" length="4.46" shape="1676.05,2359.96 1679.08,2357.54 1679.65,2357.43"/>
    </edge>
    <edge id=":1005_8" function="internal">
        <lane id=":1005_8_0" index="0" speed="3.65" length="1.44" shape="1676.05,2359.96 1677.43,2359.56"/>
    </edge>
    <edge id=":1005_10" function="internal">
        <lane id=":1005_10_0" index="0" speed="8.76" length="12.33" shape="1679.65,2357.43 1682.57,2356.86 1686.54,2357.94 1690.97,2360.77"/>
    </edge>
    <edge id=":1005_11" function="internal">
        <lane id=":1005_11_0" index="0" speed="3.65" length="3.23" shape="1677.43,2359.56 1678.30,2359.77 1678.65,2360.60 1678.49,2362.03"/>
    </edge>
    <edge id=":1008_0" function="internal">
        <lane id=":1008_0_0" index="0" speed="12.23" length="22.64" shape="2130.15,2640.39 2123.83,2642.69 2119.03,2645.80 2115.75,2649.73 2113.99,2654.48"/>
    </edge>
    <edge id=":1008_1" function="internal">
        <lane id=":1008_1_0" index="0" speed="13.89" length="26.39" shape="2130.15,2640.39 2124.90,2642.13 2117.74,2644.90 2110.70,2647.93 2105.81,2650.47"/>
    </edge>
    <edge id=":1008_2" function="internal">
        <lane id=":1008_2_0" index="0" speed="13.89" length="24.46" shape="2130.15,2640.39 2122.73,2641.90 2116.29,2642.22 2110.84,2641.34 2106.38,2639.25"/>
    </edge>
    <edge id=":1008_3" function="internal">
        <lane id=":1008_3_0" index="0" speed="6.37" length="15.45" shape="2130.15,2640.39 2126.06,2640.18 2123.34,2637.78 2122.60,2634.24 2124.42,2630.57"/>
    </edge>
    <edge id=":1008_4" function="internal">
        <lane id=":1008_4_0" index="0" speed="3.65" length="4.67" shape="2130.15,2640.39 2128.79,2639.93 2128.20,2639.26 2128.38,2638.38 2129.33,2637.30"/>
    </edge>
    <edge id=":1008_5" function="internal">
        <lane id=":1008_5_0" index="0" speed="5.52" length="11.09" shape="2126.71,2632.81 2124.29,2635.72 2123.92,2637.44 2125.60,2637.97 2129.33,2637.30"/>
    </edge>
    <edge id=":1008_6" function="internal">
        <lane id=":1008_6_0" index="0" speed="13.89" length="25.27" shape="2126.71,2632.81 2123.38,2637.01 2119.39,2643.14 2115.89,2649.53 2113.99,2654.48"/>
    </edge>
    <edge id=":1008_7" function="internal">
        <lane id=":1008_7_0" index="0" speed="13.89" length="27.39" shape="2126.71,2632.81 2122.56,2636.69 2116.52,2641.96 2110.35,2647.07 2105.81,2650.47"/>
    </edge>
    <edge id=":1008_8" function="internal">
        <lane id=":1008_8_0" index="0" speed="10.83" length="9.36" shape="2126.71,2632.81 2120.98,2637.77 2119.40,2638.58"/>
    </edge>
    <edge id=":1008_9" function="internal">
        <lane id=":1008_9_0" index="0" speed="3.65" length="1.44" shape="2126.71,2632.81 2125.30,2633.10"/>
    </edge>
    <edge id=":1008_25" function="internal">
        <lane id=":1008_25_0" index="0" speed="10.83" length="13.83" shape="2119.40,2638.58 2115.68,2640.49 2110.81,2640.99 2106.38,2639.25"/>
    </edge>
    <edge id=":1008_26" function="internal">
        <lane id=":1008_26_0" index="0" speed="3.65" length="3.23" shape="2125.30,2633.10 2124.45,2632.83 2124.16,2631.98 2124.42,2630.57"/>
    </edge>
    <edge id=":1008_10" function="internal">
        <lane id=":1008_10_0" index="0" speed="9.78" length="18.73" shape="2108.18,2636.60 2111.52,2637.80 2115.35,2637.20 2119.65,2634.79 2124.42,2630.57"/>
    </edge>
    <edge id=":1008_11" function="internal">
        <lane id=":1008_11_0" index="0" speed="13.89" length="21.74" shape="2108.18,2636.60 2112.02,2638.35 2116.82,2639.05 2122.59,2638.70 2129.33,2637.30"/>
    </edge>
    <edge id=":1008_12" function="internal">
        <lane id=":1008_12_0" index="0" speed="11.22" length="19.98" shape="2108.18,2636.60 2111.61,2639.80 2113.73,2643.85 2114.52,2648.74 2113.99,2654.48"/>
    </edge>
    <edge id=":1008_13" function="internal">
        <lane id=":1008_13_0" index="0" speed="7.89" length="18.00" shape="2108.18,2636.60 2111.52,2639.84 2112.25,2643.23 2110.34,2646.77 2105.81,2650.47"/>
    </edge>
    <edge id=":1008_14" function="internal">
        <lane id=":1008_14_0" index="0" speed="3.65" length="4.67" shape="2108.18,2636.60 2108.72,2637.94 2108.61,2638.83 2107.83,2639.26 2106.38,2639.25"/>
    </edge>
    <edge id=":1008_15" function="internal">
        <lane id=":1008_15_0" index="0" speed="6.34" length="11.15" shape="2104.07,2647.79 2107.08,2645.40 2108.46,2643.19 2108.23,2641.14 2106.38,2639.25"/>
    </edge>
    <edge id=":1008_16" function="internal">
        <lane id=":1008_16_0" index="0" speed="13.89" length="26.68" shape="2104.07,2647.79 2108.53,2644.45 2114.51,2639.50 2120.36,2634.38 2124.42,2630.57"/>
    </edge>
    <edge id=":1008_17" function="internal">
        <lane id=":1008_17_0" index="0" speed="13.89" length="4.27" shape="2104.07,2647.79 2107.86,2645.83"/>
    </edge>
    <edge id=":1008_18" function="internal">
        <lane id=":1008_18_0" index="0" speed="7.41" length="3.90" shape="2104.07,2647.79 2107.56,2646.06"/>
    </edge>
    <edge id=":1008_19" function="internal">
        <lane id=":1008_19_0" index="0" speed="3.65" length="1.44" shape="2104.07,2647.79 2105.51,2647.81"/>
    </edge>
    <edge id=":1008_27" function="internal">
        <lane id=":1008_27_0" index="0" speed="13.89" length="23.12" shape="2107.86,2645.83 2109.11,2645.18 2116.46,2642.01 2123.94,2639.10 2129.33,2637.30"/>
    </edge>
    <edge id=":1008_28" function="internal">
        <lane id=":1008_28_0" index="0" speed="7.41" length="15.15" shape="2107.56,2646.06 2109.49,2645.10 2112.96,2645.32 2114.45,2648.45 2113.99,2654.48"/>
    </edge>
    <edge id=":1008_29" function="internal">
        <lane id=":1008_29_0" index="0" speed="3.65" length="3.23" shape="2105.51,2647.81 2106.28,2648.26 2106.38,2649.15 2105.81,2650.47"/>
    </edge>
    <edge id=":1008_20" function="internal">
        <lane id=":1008_20_0" index="0" speed="5.48" length="9.68" shape="2110.85,2653.88 2111.08,2650.81 2110.32,2649.22 2108.56,2649.11 2105.81,2650.47"/>
    </edge>
    <edge id=":1008_21" function="internal">
        <lane id=":1008_21_0" index="0" speed="10.15" length="16.23" shape="2110.85,2653.88 2111.31,2649.11 2110.72,2645.09 2109.08,2641.80 2106.38,2639.25"/>
    </edge>
    <edge id=":1008_22" function="internal">
        <lane id=":1008_22_0" index="0" speed="13.89" length="27.10" shape="2110.85,2653.88 2112.88,2648.66 2116.68,2641.72 2120.96,2635.03 2124.42,2630.57"/>
    </edge>
    <edge id=":1008_23" function="internal">
        <lane id=":1008_23_0" index="0" speed="13.13" length="26.23" shape="2110.85,2653.88 2112.89,2648.23 2116.65,2643.59 2122.13,2639.95 2129.33,2637.30"/>
    </edge>
    <edge id=":1008_24" function="internal">
        <lane id=":1008_24_0" index="0" speed="3.65" length="4.67" shape="2110.85,2653.88 2111.86,2652.85 2112.72,2652.61 2113.43,2653.15 2113.99,2654.48"/>
    </edge>
    <edge id=":1016_0" function="internal">
        <lane id=":1016_0_0" index="0" speed="7.86" length="9.75" shape="1991.72,2730.56 1990.14,2728.35 1988.29,2726.86 1986.16,2726.11 1983.76,2726.09"/>
    </edge>
    <edge id=":1016_1" function="internal">
        <lane id=":1016_1_0" index="0" speed="13.89" length="19.12" shape="1991.72,2730.56 1990.39,2726.46 1989.92,2721.34 1990.12,2716.11 1990.79,2711.73"/>
    </edge>
    <edge id=":1016_2" function="internal">
        <lane id=":1016_2_0" index="0" speed="9.19" length="18.11" shape="1991.72,2730.56 1990.61,2726.86 1991.42,2723.18 1994.15,2719.51 1998.81,2715.87"/>
    </edge>
    <edge id=":1016_3" function="internal">
        <lane id=":1016_3_0" index="0" speed="3.65" length="4.67" shape="1991.72,2730.56 1991.83,2729.12 1992.34,2728.38 1993.23,2728.34 1994.51,2729.00"/>
    </edge>
    <edge id=":1016_4" function="internal">
        <lane id=":1016_4_0" index="0" speed="7.93" length="13.25" shape="2000.54,2718.56 1996.90,2721.33 1994.68,2723.99 1993.88,2726.54 1994.51,2729.00"/>
    </edge>
    <edge id=":1016_5" function="internal">
        <lane id=":1016_5_0" index="0" speed="13.89" length="18.50" shape="2000.54,2718.56 1996.85,2720.79 1992.44,2723.09 1987.88,2725.01 1983.76,2726.09"/>
    </edge>
    <edge id=":1016_6" function="internal">
        <lane id=":1016_6_0" index="0" speed="7.43" length="6.52" shape="2000.54,2718.56 1994.95,2721.35 1994.69,2721.34"/>
    </edge>
    <edge id=":1016_7" function="internal">
        <lane id=":1016_7_0" index="0" speed="3.65" length="1.44" shape="2000.54,2718.56 1999.10,2718.54"/>
    </edge>
    <edge id=":1016_16" function="internal">
        <lane id=":1016_16_0" index="0" speed="7.43" length="12.97" shape="1994.69,2721.34 1991.46,2721.15 1990.08,2717.94 1990.79,2711.73"/>
    </edge>
    <edge id=":1016_17" function="internal">
        <lane id=":1016_17_0" index="0" speed="3.65" length="3.23" shape="1999.10,2718.54 1998.33,2718.08 1998.23,2717.20 1998.81,2715.87"/>
    </edge>
    <edge id=":1016_8" function="internal">
        <lane id=":1016_8_0" index="0" speed="5.47" length="9.78" shape="1993.91,2712.44 1993.55,2715.56 1994.25,2717.17 1996.00,2717.27 1998.81,2715.87"/>
    </edge>
    <edge id=":1016_9" function="internal">
        <lane id=":1016_9_0" index="0" speed="13.89" length="16.85" shape="1993.91,2712.44 1993.19,2716.47 1992.88,2720.91 1993.23,2725.25 1994.51,2729.00"/>
    </edge>
    <edge id=":1016_10" function="internal">
        <lane id=":1016_10_0" index="0" speed="10.44" length="18.03" shape="1993.91,2712.44 1992.19,2718.04 1989.92,2722.19 1987.11,2724.87 1983.76,2726.09"/>
    </edge>
    <edge id=":1016_11" function="internal">
        <lane id=":1016_11_0" index="0" speed="3.65" length="4.67" shape="1993.91,2712.44 1992.86,2713.44 1992.00,2713.65 1991.30,2713.08 1990.79,2711.73"/>
    </edge>
    <edge id=":1016_12" function="internal">
        <lane id=":1016_12_0" index="0" speed="9.31" length="14.18" shape="1983.33,2722.92 1985.69,2721.96 1987.72,2719.78 1989.42,2716.37 1990.79,2711.73"/>
    </edge>
    <edge id=":1016_13" function="internal">
        <lane id=":1016_13_0" index="0" speed="13.89" length="17.11" shape="1983.33,2722.92 1987.25,2721.92 1991.35,2720.16 1995.31,2718.02 1998.81,2715.87"/>
    </edge>
    <edge id=":1016_14" function="internal">
        <lane id=":1016_14_0" index="0" speed="9.19" length="2.76" shape="1983.33,2722.92 1986.09,2722.93"/>
    </edge>
    <edge id=":1016_15" function="internal">
        <lane id=":1016_15_0" index="0" speed="3.65" length="1.32" shape="1983.33,2722.92 1984.52,2723.50"/>
    </edge>
    <edge id=":1016_18" function="internal">
        <lane id=":1016_18_0" index="0" speed="9.19" length="10.84" shape="1986.09,2722.93 1986.74,2722.93 1989.74,2723.95 1992.33,2725.97 1994.51,2729.00"/>
    </edge>
    <edge id=":1016_19" function="internal">
        <lane id=":1016_19_0" index="0" speed="3.65" length="3.35" shape="1984.52,2723.50 1984.62,2723.55 1985.13,2724.29 1984.84,2725.14 1983.76,2726.09"/>
    </edge>
    <edge id=":102_0" function="internal">
        <lane id=":102_0_0" index="0" speed="10.25" length="20.63" shape="1403.73,1484.11 1405.65,1489.07 1405.64,1493.77 1403.69,1498.23 1399.80,1502.45"/>
    </edge>
    <edge id=":102_1" function="internal">
        <lane id=":102_1_0" index="0" speed="7.51" length="8.25" shape="1403.73,1484.11 1405.76,1489.15 1405.25,1491.93"/>
    </edge>
    <edge id=":102_2" function="internal">
        <lane id=":102_2_0" index="0" speed="3.65" length="1.44" shape="1403.73,1484.11 1403.63,1485.55"/>
    </edge>
    <edge id=":102_9" function="internal">
        <lane id=":102_9_0" index="0" speed="7.51" length="10.14" shape="1405.25,1491.93 1405.14,1492.49 1401.89,1494.16 1395.98,1494.13"/>
    </edge>
    <edge id=":102_10" function="internal">
        <lane id=":102_10_0" index="0" speed="3.65" length="3.23" shape="1403.63,1485.55 1403.13,1486.29 1402.24,1486.34 1400.95,1485.70"/>
    </edge>
    <edge id=":102_3" function="internal">
        <lane id=":102_3_0" index="0" speed="5.73" length="10.08" shape="1396.37,1490.96 1399.70,1490.99 1401.58,1490.13 1402.00,1488.36 1400.95,1485.70"/>
    </edge>
    <edge id=":102_4" function="internal">
        <lane id=":102_4_0" index="0" speed="7.40" length="18.89" shape="1396.37,1490.96 1402.19,1492.35 1404.70,1494.73 1403.90,1498.09 1399.80,1502.45"/>
    </edge>
    <edge id=":102_5" function="internal">
        <lane id=":102_5_0" index="0" speed="3.65" length="4.67" shape="1396.37,1490.96 1397.46,1491.89 1397.76,1492.73 1397.27,1493.48 1395.98,1494.13"/>
    </edge>
    <edge id=":102_6" function="internal">
        <lane id=":102_6_0" index="0" speed="5.49" length="9.64" shape="1397.74,1500.00 1399.83,1497.78 1400.24,1496.06 1398.96,1494.84 1395.98,1494.13"/>
    </edge>
    <edge id=":102_7" function="internal">
        <lane id=":102_7_0" index="0" speed="9.11" length="16.12" shape="1397.74,1500.00 1400.82,1496.68 1402.38,1493.19 1402.42,1489.53 1400.95,1485.70"/>
    </edge>
    <edge id=":102_8" function="internal">
        <lane id=":102_8_0" index="0" speed="3.65" length="1.32" shape="1397.74,1500.00 1399.04,1499.85"/>
    </edge>
    <edge id=":102_11" function="internal">
        <lane id=":102_11_0" index="0" speed="3.65" length="3.36" shape="1399.04,1499.85 1399.17,1499.84 1399.99,1500.19 1400.20,1501.06 1399.80,1502.45"/>
    </edge>
    <edge id=":1024_0" function="internal">
        <lane id=":1024_0_0" index="0" speed="10.22" length="17.93" shape="2238.55,2525.65 2235.87,2525.33 2232.48,2526.61 2228.37,2529.49 2223.54,2533.98"/>
    </edge>
    <edge id=":1024_1" function="internal">
        <lane id=":1024_1_0" index="0" speed="13.89" length="20.24" shape="2238.55,2525.65 2234.21,2524.80 2228.71,2525.15 2223.14,2526.17 2218.63,2527.30"/>
    </edge>
    <edge id=":1024_2" function="internal">
        <lane id=":1024_2_0" index="0" speed="8.81" length="13.01" shape="2238.55,2525.65 2235.67,2523.77 2233.75,2521.37 2232.77,2518.45 2232.75,2515.03"/>
    </edge>
    <edge id=":1024_3" function="internal">
        <lane id=":1024_3_0" index="0" speed="3.65" length="4.67" shape="2238.55,2525.65 2237.82,2524.41 2237.81,2523.51 2238.52,2522.97 2239.94,2522.78"/>
    </edge>
    <edge id=":1024_4" function="internal">
        <lane id=":1024_4_0" index="0" speed="7.42" length="9.01" shape="2235.93,2515.41 2235.94,2517.79 2236.62,2519.81 2237.95,2521.47 2239.94,2522.78"/>
    </edge>
    <edge id=":1024_5" function="internal">
        <lane id=":1024_5_0" index="0" speed="13.89" length="22.51" shape="2235.93,2515.41 2234.23,2519.91 2230.82,2525.22 2226.87,2530.27 2223.54,2533.98"/>
    </edge>
    <edge id=":1024_6" function="internal">
        <lane id=":1024_6_0" index="0" speed="11.56" length="4.69" shape="2235.93,2515.41 2233.98,2518.55 2233.20,2519.17"/>
    </edge>
    <edge id=":1024_7" function="internal">
        <lane id=":1024_7_0" index="0" speed="3.65" length="1.44" shape="2235.93,2515.41 2234.99,2516.51"/>
    </edge>
    <edge id=":1024_16" function="internal">
        <lane id=":1024_16_0" index="0" speed="11.56" length="16.80" shape="2233.20,2519.17 2229.64,2522.02 2224.11,2525.16 2218.63,2527.30"/>
    </edge>
    <edge id=":1024_17" function="internal">
        <lane id=":1024_17_0" index="0" speed="3.65" length="3.23" shape="2234.99,2516.51 2234.15,2516.81 2233.40,2516.31 2232.75,2515.03"/>
    </edge>
    <edge id=":1024_8" function="internal">
        <lane id=":1024_8_0" index="0" speed="10.69" length="18.28" shape="2217.77,2524.22 2224.09,2522.14 2228.69,2519.91 2231.58,2517.54 2232.75,2515.03"/>
    </edge>
    <edge id=":1024_9" function="internal">
        <lane id=":1024_9_0" index="0" speed="13.89" length="22.46" shape="2217.77,2524.22 2222.63,2523.12 2228.98,2522.17 2235.26,2521.89 2239.94,2522.78"/>
    </edge>
    <edge id=":1024_10" function="internal">
        <lane id=":1024_10_0" index="0" speed="6.35" length="15.42" shape="2217.77,2524.22 2221.85,2524.40 2224.59,2526.78 2225.36,2530.32 2223.54,2533.98"/>
    </edge>
    <edge id=":1024_11" function="internal">
        <lane id=":1024_11_0" index="0" speed="3.65" length="4.67" shape="2217.77,2524.22 2219.14,2524.67 2219.74,2525.33 2219.57,2526.21 2218.63,2527.30"/>
    </edge>
    <edge id=":1024_12" function="internal">
        <lane id=":1024_12_0" index="0" speed="5.53" length="11.21" shape="2221.26,2531.74 2223.71,2528.79 2224.10,2527.07 2222.40,2526.57 2218.63,2527.30"/>
    </edge>
    <edge id=":1024_13" function="internal">
        <lane id=":1024_13_0" index="0" speed="13.89" length="20.50" shape="2221.26,2531.74 2224.45,2528.32 2228.09,2523.91 2231.19,2519.23 2232.75,2515.03"/>
    </edge>
    <edge id=":1024_14" function="internal">
        <lane id=":1024_14_0" index="0" speed="11.10" length="6.10" shape="2221.26,2531.74 2225.75,2528.03 2225.98,2527.89"/>
    </edge>
    <edge id=":1024_15" function="internal">
        <lane id=":1024_15_0" index="0" speed="3.65" length="1.44" shape="2221.26,2531.74 2222.67,2531.45"/>
    </edge>
    <edge id=":1024_18" function="internal">
        <lane id=":1024_18_0" index="0" speed="11.10" length="15.20" shape="2225.98,2527.89 2231.16,2524.80 2236.29,2522.79 2239.94,2522.78"/>
    </edge>
    <edge id=":1024_19" function="internal">
        <lane id=":1024_19_0" index="0" speed="3.65" length="3.23" shape="2222.67,2531.45 2223.52,2531.72 2223.81,2532.56 2223.54,2533.98"/>
    </edge>
    <edge id=":1026_0" function="internal">
        <lane id=":1026_0_0" index="0" speed="8.87" length="8.71" shape="1001.90,2047.63 999.97,2046.12 998.01,2045.12 996.02,2044.66 994.00,2044.71"/>
    </edge>
    <edge id=":1026_1" function="internal">
        <lane id=":1026_1_0" index="0" speed="8.05" length="12.41" shape="1001.90,2047.63 999.80,2045.06 998.86,2042.33 999.09,2039.46 1000.49,2036.45"/>
    </edge>
    <edge id=":1026_2" function="internal">
        <lane id=":1026_2_0" index="0" speed="3.65" length="4.67" shape="1001.90,2047.63 1001.57,2046.23 1001.82,2045.37 1002.66,2045.06 1004.08,2045.29"/>
    </edge>
    <edge id=":1026_3" function="internal">
        <lane id=":1026_3_0" index="0" speed="6.55" length="7.90" shape="1003.18,2038.17 1002.29,2040.09 1002.15,2041.92 1002.74,2043.65 1004.08,2045.29"/>
    </edge>
    <edge id=":1026_4" function="internal">
        <lane id=":1026_4_0" index="0" speed="10.68" length="11.61" shape="1003.18,2038.17 1001.25,2040.70 999.07,2042.64 996.66,2043.98 994.00,2044.71"/>
    </edge>
    <edge id=":1026_5" function="internal">
        <lane id=":1026_5_0" index="0" speed="3.65" length="1.44" shape="1003.18,2038.17 1001.86,2038.75"/>
    </edge>
    <edge id=":1026_9" function="internal">
        <lane id=":1026_9_0" index="0" speed="3.65" length="3.23" shape="1001.86,2038.75 1000.97,2038.66 1000.51,2037.89 1000.49,2036.45"/>
    </edge>
    <edge id=":1026_6" function="internal">
        <lane id=":1026_6_0" index="0" speed="9.41" length="8.91" shape="993.50,2041.55 995.49,2040.99 997.31,2039.95 998.98,2038.43 1000.49,2036.45"/>
    </edge>
    <edge id=":1026_7" function="internal">
        <lane id=":1026_7_0" index="0" speed="10.17" length="2.77" shape="993.50,2041.55 996.27,2041.45"/>
    </edge>
    <edge id=":1026_8" function="internal">
        <lane id=":1026_8_0" index="0" speed="3.65" length="1.33" shape="993.50,2041.55 994.71,2042.11"/>
    </edge>
    <edge id=":1026_10" function="internal">
        <lane id=":1026_10_0" index="0" speed="10.17" length="8.85" shape="996.27,2041.45 998.95,2042.04 1001.56,2043.32 1004.08,2045.29"/>
    </edge>
    <edge id=":1026_11" function="internal">
        <lane id=":1026_11_0" index="0" speed="3.65" length="3.35" shape="994.71,2042.11 994.81,2042.16 995.33,2042.88 995.06,2043.74 994.00,2044.71"/>
    </edge>
    <edge id=":1028_0" function="internal">
        <lane id=":1028_0_0" index="0" speed="13.89" length="14.11" shape="996.82,2203.28 986.24,2212.62"/>
    </edge>
    <edge id=":1028_1" function="internal">
        <lane id=":1028_1_0" index="0" speed="8.18" length="3.79" shape="996.82,2203.28 993.59,2205.26"/>
    </edge>
    <edge id=":1028_2" function="internal">
        <lane id=":1028_2_0" index="0" speed="3.65" length="1.44" shape="996.82,2203.28 995.39,2203.43"/>
    </edge>
    <edge id=":1028_9" function="internal">
        <lane id=":1028_9_0" index="0" speed="8.18" length="10.34" shape="993.59,2205.26 990.42,2205.77 987.32,2204.81 984.29,2202.38"/>
    </edge>
    <edge id=":1028_10" function="internal">
        <lane id=":1028_10_0" index="0" speed="3.65" length="3.23" shape="995.39,2203.43 994.57,2203.07 994.37,2202.20 994.78,2200.82"/>
    </edge>
    <edge id=":1028_3" function="internal">
        <lane id=":1028_3_0" index="0" speed="6.72" length="9.22" shape="986.61,2200.18 988.60,2201.77 990.62,2202.41 992.68,2202.09 994.78,2200.82"/>
    </edge>
    <edge id=":1028_4" function="internal">
        <lane id=":1028_4_0" index="0" speed="7.99" length="14.22" shape="986.61,2200.18 988.87,2203.35 989.56,2206.49 988.68,2209.58 986.24,2212.62"/>
    </edge>
    <edge id=":1028_5" function="internal">
        <lane id=":1028_5_0" index="0" speed="3.65" length="4.67" shape="986.61,2200.18 986.85,2201.60 986.55,2202.44 985.69,2202.70 984.29,2202.38"/>
    </edge>
    <edge id=":1028_6" function="internal">
        <lane id=":1028_6_0" index="0" speed="6.49" length="9.03" shape="984.06,2210.28 985.61,2208.35 986.16,2206.39 985.72,2204.40 984.29,2202.38"/>
    </edge>
    <edge id=":1028_7" function="internal">
        <lane id=":1028_7_0" index="0" speed="13.89" length="14.31" shape="984.06,2210.28 994.78,2200.82"/>
    </edge>
    <edge id=":1028_8" function="internal">
        <lane id=":1028_8_0" index="0" speed="3.65" length="1.44" shape="984.06,2210.28 985.48,2210.05"/>
    </edge>
    <edge id=":1028_11" function="internal">
        <lane id=":1028_11_0" index="0" speed="3.65" length="3.23" shape="985.48,2210.05 986.32,2210.36 986.57,2211.22 986.24,2212.62"/>
    </edge>
    <edge id=":1032_0" function="internal">
        <lane id=":1032_0_0" index="0" speed="6.09" length="11.57" shape="1020.01,2310.54 1017.75,2308.89 1015.87,2309.15 1014.37,2311.31 1013.24,2315.39"/>
    </edge>
    <edge id=":1032_1" function="internal">
        <lane id=":1032_1_0" index="0" speed="9.55" length="20.29" shape="1020.01,2310.54 1016.65,2308.41 1012.56,2308.40 1007.75,2310.52 1002.21,2314.75"/>
    </edge>
    <edge id=":1032_2" function="internal">
        <lane id=":1032_2_0" index="0" speed="12.74" length="23.49" shape="1020.01,2310.54 1016.21,2307.83 1011.23,2306.50 1005.06,2306.56 997.71,2308.00"/>
    </edge>
    <edge id=":1032_3" function="internal">
        <lane id=":1032_3_0" index="0" speed="10.34" length="16.55" shape="1020.01,2310.54 1016.78,2306.51 1014.86,2302.69 1014.26,2299.09 1014.98,2295.70"/>
    </edge>
    <edge id=":1032_4" function="internal">
        <lane id=":1032_4_0" index="0" speed="3.65" length="4.67" shape="1020.01,2310.54 1019.77,2309.12 1020.08,2308.28 1020.94,2308.03 1022.34,2308.35"/>
    </edge>
    <edge id=":1032_5" function="internal">
        <lane id=":1032_5_0" index="0" speed="9.17" length="12.88" shape="1017.93,2296.94 1017.48,2299.40 1018.06,2302.12 1019.68,2305.10 1022.34,2308.35"/>
    </edge>
    <edge id=":1032_6" function="internal">