<?xml version="1.0" encoding="UTF-8"?>

<!-- generated on 2024-08-10 14:39:45 by Eclipse SUMO netgenerate Version 1.20.0
<configuration xmlns:xsi="http://www.w3.org/2001/XMLSchema-instance" xsi:noNamespaceSchemaLocation="http://sumo.dlr.de/xsd/netgenerateConfiguration.xsd">

    <grid_network>
        <grid value="false"/>
        <grid.number value="10"/>
        <grid.x-number value="10"/>
        <grid.y-number value="10"/>
    </grid_network>

    <spider_network>
        <spider value="true"/>
        <spider.arm-number value="5"/>
        <spider.circle-number value="10"/>
        <spider.omit-center value="true"/>
        <spider.attach-length value="50.00"/>
    </spider_network>

    <random_network>
        <rand value="false"/>
        <rand.grid value="false"/>
    </random_network>

    <output>
        <output-file value="C:\Users\cri98\Downloads\Spider.net.xml"/>
    </output>

</configuration>
-->

<net version="1.20" junctionCornerDetail="5" limitTurnSpeed="5.50" xmlns:xsi="http://www.w3.org/2001/XMLSchema-instance" xsi:noNamespaceSchemaLocation="http://sumo.dlr.de/xsd/net_file.xsd">

    <location netOffset="809.02,951.06" convBoundary="0.00,0.00,1809.02,1902.11" origBoundary="-809.02,-951.06,1000.00,951.06" projParameter="!"/>

    <edge id=":B1_0" function="internal">
        <lane id=":B1_0_0" index="0" speed="8.08" length="7.54" shape="913.55,952.66 911.76,952.88 910.11,953.55 908.60,954.67 907.24,956.23"/>
    </edge>
    <edge id=":B1_1" function="internal">
        <lane id=":B1_1_0" index="0" speed="9.47" length="2.58" shape="913.55,952.66 910.99,952.35"/>
    </edge>
    <edge id=":B1_2" function="internal">
        <lane id=":B1_2_0" index="0" speed="3.65" length="1.32" shape="913.55,952.66 912.45,951.92"/>
    </edge>
    <edge id=":B1_9" function="internal">
        <lane id=":B1_9_0" index="0" speed="9.47" length="7.98" shape="910.99,952.35 908.65,951.43 906.54,949.90 904.65,947.76"/>
    </edge>
    <edge id=":B1_10" function="internal">
        <lane id=":B1_10_0" index="0" speed="3.65" length="3.35" shape="912.45,951.92 912.35,951.86 911.95,951.06 912.35,950.26 913.55,949.46"/>
    </edge>
    <edge id=":B1_3" function="internal">
        <lane id=":B1_3_0" index="0" speed="8.08" length="7.54" shape="907.24,945.88 908.60,947.45 910.11,948.56 911.76,949.23 913.55,949.46"/>
    </edge>
    <edge id=":B1_4" function="internal">
        <lane id=":B1_4_0" index="0" speed="8.13" length="11.15" shape="907.24,945.88 908.65,948.47 909.12,951.06 908.65,953.64 907.24,956.23"/>
    </edge>
    <edge id=":B1_5" function="internal">
        <lane id=":B1_5_0" index="0" speed="3.65" length="4.67" shape="907.24,945.88 907.29,947.33 906.88,948.12 906.00,948.27 904.65,947.76"/>
    </edge>
    <edge id=":B1_6" function="internal">
        <lane id=":B1_6_0" index="0" speed="6.60" length="7.09" shape="904.65,954.35 905.54,952.70 905.84,951.06 905.54,949.41 904.65,947.76"/>
    </edge>
    <edge id=":B1_7" function="internal">
        <lane id=":B1_7_0" index="0" speed="9.47" length="10.56" shape="904.65,954.35 906.54,952.21 908.65,950.68 910.99,949.76 913.55,949.46"/>
    </edge>
    <edge id=":B1_8" function="internal">
        <lane id=":B1_8_0" index="0" speed="3.65" length="1.44" shape="904.65,954.35 906.00,953.85"/>
    </edge>
    <edge id=":B1_11" function="internal">
        <lane id=":B1_11_0" index="0" speed="3.65" length="3.23" shape="906.00,953.85 906.88,953.99 907.29,954.79 907.24,956.23"/>
    </edge>
    <edge id=":B2_0" function="internal">
        <lane id=":B2_0_0" index="0" speed="8.08" length="7.54" shape="839.80,1050.97 839.03,1049.34 837.89,1047.98 836.36,1046.89 834.45,1046.07"/>
    </edge>
    <edge id=":B2_1" function="internal">
        <lane id=":B2_1_0" index="0" speed="9.47" length="2.58" shape="839.80,1050.97 839.30,1048.44"/>
    </edge>
    <edge id=":B2_2" function="internal">
        <lane id=":B2_2_0" index="0" speed="3.65" length="1.32" shape="839.80,1050.97 840.16,1049.70"/>
    </edge>
    <edge id=":B2_9" function="internal">
        <lane id=":B2_9_0" index="0" speed="9.47" length="7.98" shape="839.30,1048.44 839.45,1045.93 840.25,1043.45 841.70,1040.99"/>
    </edge>
    <edge id=":B2_10" function="internal">
        <lane id=":B2_10_0" index="0" speed="3.65" length="3.35" shape="840.16,1049.70 840.19,1049.58 840.83,1048.96 841.71,1049.09 842.84,1049.98"/>
    </edge>
    <edge id=":B2_3" function="internal">
        <lane id=":B2_3_0" index="0" speed="8.08" length="7.54" shape="844.29,1042.87 843.22,1044.65 842.63,1046.43 842.50,1048.21 842.84,1049.98"/>
    </edge>
    <edge id=":B2_4" function="internal">
        <lane id=":B2_4_0" index="0" speed="8.13" length="11.15" shape="844.29,1042.87 842.26,1045.01 839.95,1046.26 837.34,1046.61 834.45,1046.07"/>
    </edge>
    <edge id=":B2_5" function="internal">
        <lane id=":B2_5_0" index="0" speed="3.65" length="4.67" shape="844.29,1042.87 842.94,1043.37 842.05,1043.22 841.64,1042.43 841.70,1040.99"/>
    </edge>
    <edge id=":B2_6" function="internal">
        <lane id=":B2_6_0" index="0" speed="6.60" length="7.09" shape="835.44,1043.02 837.28,1043.37 838.94,1043.14 840.41,1042.35 841.70,1040.99"/>
    </edge>
    <edge id=":B2_7" function="internal">
        <lane id=":B2_7_0" index="0" speed="9.47" length="10.56" shape="835.44,1043.02 838.06,1044.16 840.16,1045.70 841.76,1047.64 842.84,1049.98"/>
    </edge>
    <edge id=":B2_8" function="internal">
        <lane id=":B2_8_0" index="0" speed="3.65" length="1.44" shape="835.44,1043.02 836.33,1044.16"/>
    </edge>
    <edge id=":B2_11" function="internal">
        <lane id=":B2_11_0" index="0" speed="3.65" length="3.23" shape="836.33,1044.16 836.47,1045.04 835.84,1045.68 834.45,1046.07"/>
    </edge>
    <edge id=":B3_0" function="internal">
        <lane id=":B3_0_0" index="0" speed="8.08" length="7.54" shape="732.60,1012.97 730.57,1012.51 728.69,1012.50 726.97,1012.92 725.39,1013.80"/>
    </edge>
    <edge id=":B3_1" function="internal">
        <lane id=":B3_1_0" index="0" speed="8.13" length="2.95" shape="732.60,1012.97 729.94,1011.71"/>
    </edge>
    <edge id=":B3_2" function="internal">
        <lane id=":B3_2_0" index="0" speed="3.65" length="1.34" shape="732.60,1012.97 731.76,1011.92"/>
    </edge>
    <edge id=":B3_9" function="internal">
        <lane id=":B3_9_0" index="0" speed="8.13" length="8.20" shape="729.94,1011.71 728.04,1009.89 726.90,1007.52 726.52,1004.60"/>
    </edge>
    <edge id=":B3_10" function="internal">
        <lane id=":B3_10_0" index="0" speed="3.65" length="3.33" shape="731.76,1011.92 731.70,1011.84 731.57,1010.96 732.20,1010.32 733.58,1009.93"/>
    </edge>
    <edge id=":B3_3" function="internal">
        <lane id=":B3_3_0" index="0" speed="6.60" length="7.09" shape="729.72,1004.60 729.96,1006.46 730.68,1007.97 731.89,1009.13 733.58,1009.93"/>
    </edge>
    <edge id=":B3_4" function="internal">
        <lane id=":B3_4_0" index="0" speed="9.47" length="10.56" shape="729.72,1004.60 729.44,1007.45 728.63,1009.93 727.28,1012.04 725.39,1013.80"/>
    </edge>
    <edge id=":B3_5" function="internal">
        <lane id=":B3_5_0" index="0" speed="3.65" length="4.67" shape="729.72,1004.60 728.92,1005.80 728.12,1006.20 727.32,1005.80 726.52,1004.60"/>
    </edge>
    <edge id=":B3_6" function="internal">
        <lane id=":B3_6_0" index="0" speed="8.08" length="7.54" shape="723.50,1011.21 724.82,1009.97 725.76,1008.46 726.33,1006.67 726.52,1004.60"/>
    </edge>
    <edge id=":B3_7" function="internal">
        <lane id=":B3_7_0" index="0" speed="9.47" length="10.56" shape="723.50,1011.21 725.76,1009.95 728.19,1009.31 730.80,1009.31 733.58,1009.93"/>
    </edge>
    <edge id=":B3_8" function="internal">
        <lane id=":B3_8_0" index="0" speed="3.65" length="1.44" shape="723.50,1011.21 724.95,1011.15"/>
    </edge>
    <edge id=":B3_11" function="internal">
        <lane id=":B3_11_0" index="0" speed="3.65" length="3.23" shape="724.95,1011.15 725.74,1011.56 725.89,1012.44 725.39,1013.80"/>
    </edge>
    <edge id=":B4_0" function="internal">
        <lane id=":B4_0_0" index="0" speed="8.08" length="7.54" shape="726.52,897.51 726.33,895.44 725.76,893.65 724.82,892.14 723.50,890.91"/>
    </edge>
    <edge id=":B4_1" function="internal">
        <lane id=":B4_1_0" index="0" speed="8.13" length="11.15" shape="726.52,897.51 726.90,894.59 728.04,892.22 729.94,890.40 732.60,889.14"/>
    </edge>
    <edge id=":B4_2" function="internal">
        <lane id=":B4_2_0" index="0" speed="3.65" length="4.67" shape="726.52,897.51 727.32,896.31 728.12,895.91 728.92,896.31 729.72,897.51"/>
    </edge>
    <edge id=":B4_3" function="internal">
        <lane id=":B4_3_0" index="0" speed="6.60" length="7.09" shape="733.58,892.18 731.89,892.99 730.68,894.14 729.96,895.65 729.72,897.51"/>
    </edge>
    <edge id=":B4_4" function="internal">
        <lane id=":B4_4_0" index="0" speed="9.47" length="10.56" shape="733.58,892.18 730.80,892.80 728.19,892.80 725.76,892.17 723.50,890.91"/>
    </edge>
    <edge id=":B4_5" function="internal">
        <lane id=":B4_5_0" index="0" speed="3.65" length="1.44" shape="733.58,892.18 732.20,891.79"/>
    </edge>
    <edge id=":B4_9" function="internal">
        <lane id=":B4_9_0" index="0" speed="3.65" length="3.23" shape="732.20,891.79 731.57,891.16 731.70,890.27 732.60,889.14"/>
    </edge>
    <edge id=":B4_6" function="internal">
        <lane id=":B4_6_0" index="0" speed="8.08" length="7.54" shape="725.39,888.32 726.97,889.19 728.69,889.62 730.57,889.60 732.60,889.14"/>
    </edge>
    <edge id=":B4_7" function="internal">
        <lane id=":B4_7_0" index="0" speed="9.47" length="2.58" shape="725.39,888.32 727.28,890.07"/>
    </edge>
    <edge id=":B4_8" function="internal">
        <lane id=":B4_8_0" index="0" speed="3.65" length="1.32" shape="725.39,888.32 725.84,889.56"/>
    </edge>
    <edge id=":B4_10" function="internal">
        <lane id=":B4_10_0" index="0" speed="9.47" length="7.98" shape="727.28,890.07 728.63,892.19 729.44,894.67 729.72,897.51"/>
    </edge>
    <edge id=":B4_11" function="internal">
        <lane id=":B4_11_0" index="0" speed="3.65" length="3.35" shape="725.84,889.56 725.89,889.67 725.74,890.55 724.95,890.96 723.50,890.91"/>
    </edge>
    <edge id=":B5_0" function="internal">
        <lane id=":B5_0_0" index="0" speed="6.60" length="7.09" shape="841.70,861.12 840.41,859.76 838.94,858.97 837.28,858.74 835.44,859.09"/>
    </edge>
    <edge id=":B5_1" function="internal">
        <lane id=":B5_1_0" index="0" speed="9.47" length="10.56" shape="841.70,861.12 840.25,858.67 839.45,856.18 839.30,853.67 839.80,851.14"/>
    </edge>
    <edge id=":B5_2" function="internal">
        <lane id=":B5_2_0" index="0" speed="3.65" length="4.67" shape="841.70,861.12 841.64,859.68 842.05,858.89 842.94,858.74 844.29,859.24"/>
    </edge>
    <edge id=":B5_3" function="internal">
        <lane id=":B5_3_0" index="0" speed="8.08" length="7.54" shape="842.84,852.13 842.50,853.90 842.63,855.68 843.22,857.46 844.29,859.24"/>
    </edge>
    <edge id=":B5_4" function="internal">
        <lane id=":B5_4_0" index="0" speed="9.47" length="10.56" shape="842.84,852.13 841.76,854.47 840.16,856.42 838.06,857.95 835.44,859.09"/>
    </edge>
    <edge id=":B5_5" function="internal">
        <lane id=":B5_5_0" index="0" speed="3.65" length="1.44" shape="842.84,852.13 841.71,853.02"/>
    </edge>
    <edge id=":B5_9" function="internal">
        <lane id=":B5_9_0" index="0" speed="3.65" length="3.23" shape="841.71,853.02 840.83,853.16 840.19,852.53 839.80,851.14"/>
    </edge>
    <edge id=":B5_6" function="internal">
        <lane id=":B5_6_0" index="0" speed="8.08" length="7.54" shape="834.45,856.05 836.36,855.23 837.89,854.14 839.03,852.78 839.80,851.14"/>
    </edge>
    <edge id=":B5_7" function="internal">
        <lane id=":B5_7_0" index="0" speed="8.13" length="2.95" shape="834.45,856.05 837.34,855.50"/>
    </edge>
    <edge id=":B5_8" function="internal">
        <lane id=":B5_8_0" index="0" speed="3.65" length="1.34" shape="834.45,856.05 835.74,856.41"/>
    </edge>
    <edge id=":B5_10" function="internal">
        <lane id=":B5_10_0" index="0" speed="8.13" length="8.20" shape="837.34,855.50 839.95,855.86 842.26,857.10 844.29,859.24"/>
    </edge>
    <edge id=":B5_11" function="internal">
        <lane id=":B5_11_0" index="0" speed="3.65" length="3.33" shape="835.74,856.41 835.84,856.44 836.47,857.07 836.33,857.96 835.44,859.09"/>
    </edge>
    <edge id=":C1_0" function="internal">
        <lane id=":C1_0_0" index="0" speed="10.58" length="13.31" shape="1014.65,952.66 1012.19,953.14 1009.65,954.57 1007.00,956.96 1004.27,960.31"/>
    </edge>
    <edge id=":C1_1" function="internal">
        <lane id=":C1_1_0" index="0" speed="13.89" length="15.91" shape="1014.65,952.66 998.74,952.66"/>
    </edge>
    <edge id=":C1_2" function="internal">
        <lane id=":C1_2_0" index="0" speed="11.67" length="3.52" shape="1014.65,952.66 1011.42,952.10 1011.20,951.98"/>
    </edge>
    <edge id=":C1_3" function="internal">
        <lane id=":C1_3_0" index="0" speed="3.65" length="1.44" shape="1014.65,952.66 1013.45,951.86"/>
    </edge>
    <edge id=":C1_16" function="internal">
        <lane id=":C1_16_0" index="0" speed="11.67" length="12.80" shape="1011.20,951.98 1008.18,950.41 1004.94,947.61 1001.68,943.68"/>
    </edge>
    <edge id=":C1_17" function="internal">
        <lane id=":C1_17_0" index="0" speed="3.65" length="3.23" shape="1013.45,951.86 1013.05,951.06 1013.45,950.26 1014.65,949.46"/>
    </edge>
    <edge id=":C1_4" function="internal">
        <lane id=":C1_4_0" index="0" speed="10.58" length="13.31" shape="1004.27,941.80 1007.00,945.15 1009.65,947.54 1012.19,948.98 1014.65,949.46"/>
    </edge>
    <edge id=":C1_5" function="internal">
        <lane id=":C1_5_0" index="0" speed="10.71" length="19.95" shape="1004.27,941.80 1006.79,946.43 1007.63,951.06 1006.79,955.69 1004.27,960.31"/>
    </edge>
    <edge id=":C1_6" function="internal">
        <lane id=":C1_6_0" index="0" speed="7.38" length="17.63" shape="1004.27,941.80 1006.88,946.55 1006.83,949.94 1004.12,951.98 998.74,952.66"/>
    </edge>
    <edge id=":C1_7" function="internal">
        <lane id=":C1_7_0" index="0" speed="3.65" length="4.67" shape="1004.27,941.80 1004.33,943.24 1003.91,944.03 1003.03,944.18 1001.68,943.68"/>
    </edge>
    <edge id=":C1_8" function="internal">
        <lane id=":C1_8_0" index="0" speed="5.57" length="9.38" shape="998.74,949.46 1001.60,949.10 1003.04,948.01 1003.07,946.21 1001.68,943.68"/>
    </edge>
    <edge id=":C1_9" function="internal">
        <lane id=":C1_9_0" index="0" speed="13.89" length="15.91" shape="998.74,949.46 1014.65,949.46"/>
    </edge>
    <edge id=":C1_10" function="internal">
        <lane id=":C1_10_0" index="0" speed="7.38" length="5.28" shape="998.74,949.46 1003.98,950.12"/>
    </edge>
    <edge id=":C1_11" function="internal">
        <lane id=":C1_11_0" index="0" speed="3.65" length="1.44" shape="998.74,949.46 999.94,950.26"/>
    </edge>
    <edge id=":C1_18" function="internal">
        <lane id=":C1_18_0" index="0" speed="7.38" length="12.35" shape="1003.98,950.12 1004.12,950.14 1006.83,952.17 1006.88,955.56 1004.27,960.31"/>
    </edge>
    <edge id=":C1_19" function="internal">
        <lane id=":C1_19_0" index="0" speed="3.65" length="3.23" shape="999.94,950.26 1000.34,951.06 999.94,951.86 998.74,952.66"/>
    </edge>
    <edge id=":C1_12" function="internal">
        <lane id=":C1_12_0" index="0" speed="5.57" length="9.38" shape="1001.68,958.43 1003.07,955.91 1003.04,954.10 1001.60,953.02 998.74,952.66"/>
    </edge>
    <edge id=":C1_13" function="internal">
        <lane id=":C1_13_0" index="0" speed="9.61" length="15.90" shape="1001.68,958.43 1003.69,954.74 1004.36,951.06 1003.69,947.37 1001.68,943.68"/>
    </edge>
    <edge id=":C1_14" function="internal">
        <lane id=":C1_14_0" index="0" speed="11.67" length="16.32" shape="1001.68,958.43 1004.94,954.51 1008.18,951.70 1011.42,950.02 1014.65,949.46"/>
    </edge>
    <edge id=":C1_15" function="internal">
        <lane id=":C1_15_0" index="0" speed="3.65" length="4.67" shape="1001.68,958.43 1003.03,957.93 1003.91,958.08 1004.33,958.87 1004.27,960.31"/>
    </edge>
    <edge id=":C2_0" function="internal">
        <lane id=":C2_0_0" index="0" speed="10.58" length="13.31" shape="871.04,1147.12 869.83,1144.93 867.67,1142.95 864.58,1141.18 860.55,1139.61"/>
    </edge>
    <edge id=":C2_1" function="internal">
        <lane id=":C2_1_0" index="0" speed="13.89" length="15.91" shape="871.04,1147.12 866.12,1131.99"/>
    </edge>
    <edge id=":C2_2" function="internal">
        <lane id=":C2_2_0" index="0" speed="11.67" length="3.52" shape="871.04,1147.12 870.57,1143.87 870.61,1143.64"/>
    </edge>
    <edge id=":C2_3" function="internal">
        <lane id=":C2_3_0" index="0" speed="3.65" length="1.44" shape="871.04,1147.12 871.43,1145.73"/>
    </edge>
    <edge id=":C2_16" function="internal">
        <lane id=":C2_16_0" index="0" speed="11.67" length="12.80" shape="870.61,1143.64 871.18,1140.28 872.84,1136.32 875.57,1132.01"/>
    </edge>
    <edge id=":C2_17" function="internal">
        <lane id=":C2_17_0" index="0" speed="3.65" length="3.23" shape="871.43,1145.73 872.07,1145.10 872.95,1145.23 874.08,1146.13"/>
    </edge>
    <edge id=":C2_4" function="internal">
        <lane id=":C2_4_0" index="0" speed="10.58" length="13.31" shape="878.16,1133.89 875.82,1137.53 874.36,1140.78 873.78,1143.65 874.08,1146.13"/>
    </edge>
    <edge id=":C2_5" function="internal">
        <lane id=":C2_5_0" index="0" speed="10.71" length="19.95" shape="878.16,1133.89 874.53,1137.72 870.39,1139.95 865.73,1140.58 860.55,1139.61"/>
    </edge>
    <edge id=":C2_6" function="internal">
        <lane id=":C2_6_0" index="0" speed="7.38" length="17.63" shape="878.16,1133.89 874.45,1137.84 871.20,1138.84 868.43,1136.89 866.12,1131.99"/>
    </edge>
    <edge id=":C2_7" function="internal">
        <lane id=":C2_7_0" index="0" speed="3.65" length="4.67" shape="878.16,1133.89 876.80,1134.39 875.92,1134.25 875.51,1133.45 875.57,1132.01"/>
    </edge>
    <edge id=":C2_8" function="internal">
        <lane id=":C2_8_0" index="0" speed="5.57" length="9.38" shape="869.17,1131.00 870.39,1133.61 871.87,1134.65 873.59,1134.11 875.57,1132.01"/>
    </edge>
    <edge id=":C2_9" function="internal">
        <lane id=":C2_9_0" index="0" speed="13.89" length="15.91" shape="869.17,1131.00 874.08,1146.13"/>
    </edge>
    <edge id=":C2_10" function="internal">
        <lane id=":C2_10_0" index="0" speed="7.38" length="5.28" shape="869.17,1131.00 870.16,1136.18"/>
    </edge>
    <edge id=":C2_11" function="internal">
        <lane id=":C2_11_0" index="0" speed="3.65" length="1.44" shape="869.17,1131.00 868.78,1132.38"/>
    </edge>
    <edge id=":C2_18" function="internal">
        <lane id=":C2_18_0" index="0" speed="7.38" length="12.35" shape="870.16,1136.18 870.18,1136.32 869.08,1139.53 865.87,1140.63 860.55,1139.61"/>
    </edge>
    <edge id=":C2_19" function="internal">
        <lane id=":C2_19_0" index="0" speed="3.65" length="3.23" shape="868.78,1132.38 868.14,1133.01 867.25,1132.88 866.12,1131.99"/>
    </edge>
    <edge id=":C2_12" function="internal">
        <lane id=":C2_12_0" index="0" speed="5.57" length="9.38" shape="861.54,1136.57 864.37,1137.11 866.08,1136.53 866.66,1134.82 866.12,1131.99"/>
    </edge>
    <edge id=":C2_13" function="internal">
        <lane id=":C2_13_0" index="0" speed="9.61" length="15.90" shape="861.54,1136.57 865.67,1137.34 869.38,1136.84 872.68,1135.06 875.57,1132.01"/>
    </edge>
    <edge id=":C2_14" function="internal">
        <lane id=":C2_14_0" index="0" speed="11.67" length="16.32" shape="861.54,1136.57 866.28,1138.45 869.95,1140.67 872.55,1143.23 874.08,1146.13"/>
    </edge>
    <edge id=":C2_15" function="internal">
        <lane id=":C2_15_0" index="0" speed="3.65" length="4.67" shape="861.54,1136.57 862.43,1137.70 862.56,1138.59 861.94,1139.22 860.55,1139.61"/>
    </edge>
    <edge id=":C3_0" function="internal">
        <lane id=":C3_0_0" index="0" speed="10.58" length="13.31" shape="656.50,1073.31 652.31,1072.21 648.77,1071.83 645.87,1072.16 643.60,1073.22"/>
    </edge>
    <edge id=":C3_1" function="internal">
        <lane id=":C3_1_0" index="0" speed="10.71" length="19.95" shape="656.50,1073.31 651.74,1071.05 648.33,1067.80 646.29,1063.56 645.61,1058.33"/>
    </edge>
    <edge id=":C3_2" function="internal">
        <lane id=":C3_2_0" index="0" speed="7.38" length="17.63" shape="656.50,1073.31 651.59,1071.00 649.64,1068.23 650.64,1064.99 654.59,1061.28"/>
    </edge>
    <edge id=":C3_3" function="internal">
        <lane id=":C3_3_0" index="0" speed="3.65" length="4.67" shape="656.50,1073.31 655.60,1072.18 655.47,1071.30 656.10,1070.66 657.49,1070.27"/>
    </edge>
    <edge id=":C3_4" function="internal">
        <lane id=":C3_4_0" index="0" speed="5.57" length="9.38" shape="656.47,1063.87 654.37,1065.84 653.84,1067.56 654.88,1069.04 657.49,1070.27"/>
    </edge>
    <edge id=":C3_5" function="internal">
        <lane id=":C3_5_0" index="0" speed="13.89" length="15.91" shape="656.47,1063.87 643.60,1073.22"/>
    </edge>
    <edge id=":C3_6" function="internal">
        <lane id=":C3_6_0" index="0" speed="7.38" length="5.28" shape="656.47,1063.87 651.84,1066.41"/>
    </edge>
    <edge id=":C3_7" function="internal">
        <lane id=":C3_7_0" index="0" speed="3.65" length="1.44" shape="656.47,1063.87 655.03,1063.92"/>
    </edge>
    <edge id=":C3_16" function="internal">
        <lane id=":C3_16_0" index="0" speed="7.38" length="12.35" shape="651.84,1066.41 651.72,1066.48 648.33,1066.43 646.29,1063.71 645.61,1058.33"/>
    </edge>
    <edge id=":C3_17" function="internal">
        <lane id=":C3_17_0" index="0" speed="3.65" length="3.23" shape="655.03,1063.92 654.24,1063.51 654.09,1062.63 654.59,1061.28"/>
    </edge>
    <edge id=":C3_8" function="internal">
        <lane id=":C3_8_0" index="0" speed="5.57" length="9.38" shape="648.81,1058.33 649.17,1061.19 650.26,1062.64 652.06,1062.67 654.59,1061.28"/>
    </edge>
    <edge id=":C3_9" function="internal">
        <lane id=":C3_9_0" index="0" speed="9.61" length="15.90" shape="648.81,1058.33 649.36,1062.50 650.98,1065.88 653.69,1068.47 657.49,1070.27"/>
    </edge>
    <edge id=":C3_10" function="internal">
        <lane id=":C3_10_0" index="0" speed="11.67" length="16.32" shape="648.81,1058.33 648.49,1063.42 647.51,1067.60 645.88,1070.87 643.60,1073.22"/>
    </edge>
    <edge id=":C3_11" function="internal">
        <lane id=":C3_11_0" index="0" speed="3.65" length="4.67" shape="648.81,1058.33 648.01,1059.53 647.21,1059.93 646.41,1059.53 645.61,1058.33"/>
    </edge>
    <edge id=":C3_12" function="internal">
        <lane id=":C3_12_0" index="0" speed="10.58" length="13.31" shape="641.72,1070.63 643.42,1068.80 644.64,1066.14 645.37,1062.65 645.61,1058.33"/>
    </edge>
    <edge id=":C3_13" function="internal">
        <lane id=":C3_13_0" index="0" speed="13.89" length="15.91" shape="641.72,1070.63 654.59,1061.28"/>
    </edge>
    <edge id=":C3_14" function="internal">
        <lane id=":C3_14_0" index="0" speed="11.67" length="3.52" shape="641.72,1070.63 644.66,1069.19 644.90,1069.15"/>
    </edge>
    <edge id=":C3_15" function="internal">
        <lane id=":C3_15_0" index="0" speed="3.65" length="1.44" shape="641.72,1070.63 643.16,1070.57"/>
    </edge>
    <edge id=":C3_18" function="internal">
        <lane id=":C3_18_0" index="0" speed="11.67" length="12.80" shape="644.90,1069.15 648.27,1068.64 652.54,1069.01 657.49,1070.27"/>
    </edge>
    <edge id=":C3_19" function="internal">
        <lane id=":C3_19_0" index="0" speed="3.65" length="3.23" shape="643.16,1070.57 643.95,1070.98 644.10,1071.86 643.60,1073.22"/>
    </edge>
    <edge id=":C4_0" function="internal">
        <lane id=":C4_0_0" index="0" speed="10.58" length="13.31" shape="645.61,843.78 645.37,839.46 644.64,835.97 643.42,833.31 641.72,831.48"/>
    </edge>
    <edge id=":C4_1" function="internal">
        <lane id=":C4_1_0" index="0" speed="10.71" length="19.95" shape="645.61,843.78 646.29,838.55 648.33,834.31 651.74,831.06 656.50,828.80"/>
    </edge>
    <edge id=":C4_2" function="internal">
        <lane id=":C4_2_0" index="0" speed="7.38" length="17.63" shape="645.61,843.78 646.29,838.40 648.33,835.69 651.72,835.64 656.47,838.25"/>
    </edge>
    <edge id=":C4_3" function="internal">
        <lane id=":C4_3_0" index="0" speed="3.65" length="4.67" shape="645.61,843.78 646.41,842.58 647.21,842.18 648.01,842.58 648.81,843.78"/>
    </edge>
    <edge id=":C4_4" function="internal">
        <lane id=":C4_4_0" index="0" speed="5.57" length="9.38" shape="654.59,840.84 652.06,839.45 650.26,839.47 649.17,840.92 648.81,843.78"/>
    </edge>
    <edge id=":C4_5" function="internal">
        <lane id=":C4_5_0" index="0" speed="13.89" length="15.91" shape="654.59,840.84 641.72,831.48"/>
    </edge>
    <edge id=":C4_6" function="internal">
        <lane id=":C4_6_0" index="0" speed="7.38" length="5.28" shape="654.59,840.84 650.74,837.22"/>
    </edge>
    <edge id=":C4_7" function="internal">
        <lane id=":C4_7_0" index="0" speed="3.65" length="1.44" shape="654.59,840.84 654.09,839.48"/>
    </edge>
    <edge id=":C4_16" function="internal">
        <lane id=":C4_16_0" index="0" speed="7.38" length="12.35" shape="650.74,837.22 650.64,837.13 649.64,833.88 651.59,831.11 656.50,828.80"/>
    </edge>
    <edge id=":C4_17" function="internal">
        <lane id=":C4_17_0" index="0" speed="3.65" length="3.23" shape="654.09,839.48 654.24,838.60 655.03,838.19 656.47,838.25"/>
    </edge>
    <edge id=":C4_8" function="internal">
        <lane id=":C4_8_0" index="0" speed="5.57" length="9.38" shape="657.49,831.84 654.88,833.07 653.84,834.55 654.37,836.27 656.47,838.25"/>
    </edge>
    <edge id=":C4_9" function="internal">
        <lane id=":C4_9_0" index="0" speed="9.61" length="15.90" shape="657.49,831.84 653.69,833.65 650.98,836.24 649.36,839.61 648.81,843.78"/>
    </edge>
    <edge id=":C4_10" function="internal">
        <lane id=":C4_10_0" index="0" speed="11.67" length="16.32" shape="657.49,831.84 652.54,833.11 648.27,833.47 644.66,832.93 641.72,831.48"/>
    </edge>
    <edge id=":C4_11" function="internal">
        <lane id=":C4_11_0" index="0" speed="3.65" length="4.67" shape="657.49,831.84 656.10,831.45 655.47,830.82 655.60,829.93 656.50,828.80"/>
    </edge>
    <edge id=":C4_12" function="internal">
        <lane id=":C4_12_0" index="0" speed="10.58" length="13.31" shape="643.60,828.90 645.87,829.95 648.77,830.29 652.31,829.90 656.50,828.80"/>
    </edge>
    <edge id=":C4_13" function="internal">
        <lane id=":C4_13_0" index="0" speed="13.89" length="15.91" shape="643.60,828.90 656.47,838.25"/>
    </edge>
    <edge id=":C4_14" function="internal">
        <lane id=":C4_14_0" index="0" speed="11.67" length="3.52" shape="643.60,828.90 645.88,831.25 645.99,831.46"/>
    </edge>
    <edge id=":C4_15" function="internal">
        <lane id=":C4_15_0" index="0" speed="3.65" length="1.44" shape="643.60,828.90 644.10,830.25"/>
    </edge>
    <edge id=":C4_18" function="internal">
        <lane id=":C4_18_0" index="0" speed="11.67" length="12.80" shape="645.99,831.46 647.51,834.51 648.49,838.69 648.81,843.78"/>
    </edge>
    <edge id=":C4_19" function="internal">
        <lane id=":C4_19_0" index="0" speed="3.65" length="3.23" shape="644.10,830.25 643.95,831.13 643.16,831.54 641.72,831.48"/>
    </edge>
    <edge id=":C5_0" function="internal">
        <lane id=":C5_0_0" index="0" speed="5.57" length="9.38" shape="875.57,770.10 873.59,768.00 871.87,767.47 870.39,768.51 869.17,771.12"/>
    </edge>
    <edge id=":C5_1" function="internal">
        <lane id=":C5_1_0" index="0" speed="9.61" length="15.90" shape="875.57,770.10 872.68,767.05 869.38,765.27 865.67,764.77 861.54,765.54"/>
    </edge>
    <edge id=":C5_2" function="internal">
        <lane id=":C5_2_0" index="0" speed="11.67" length="16.32" shape="875.57,770.10 872.84,765.79 871.18,761.84 870.57,758.24 871.04,755.00"/>
    </edge>
    <edge id=":C5_3" function="internal">
        <lane id=":C5_3_0" index="0" speed="3.65" length="4.67" shape="875.57,770.10 875.51,768.66 875.92,767.87 876.80,767.72 878.16,768.22"/>
    </edge>
    <edge id=":C5_4" function="internal">
        <lane id=":C5_4_0" index="0" speed="10.58" length="13.31" shape="874.08,755.98 873.78,758.47 874.36,761.33 875.82,764.59 878.16,768.22"/>
    </edge>
    <edge id=":C5_5" function="internal">
        <lane id=":C5_5_0" index="0" speed="13.89" length="15.91" shape="874.08,755.98 869.17,771.12"/>
    </edge>
    <edge id=":C5_6" function="internal">
        <lane id=":C5_6_0" index="0" speed="11.67" length="3.52" shape="874.08,755.98 872.55,758.88 872.38,759.05"/>
    </edge>
    <edge id=":C5_7" function="internal">
        <lane id=":C5_7_0" index="0" speed="3.65" length="1.44" shape="874.08,755.98 872.95,756.88"/>
    </edge>
    <edge id=":C5_16" function="internal">
        <lane id=":C5_16_0" index="0" speed="11.67" length="12.80" shape="872.38,759.05 869.95,761.44 866.28,763.66 861.54,765.54"/>
    </edge>
    <edge id=":C5_17" function="internal">
        <lane id=":C5_17_0" index="0" speed="3.65" length="3.23" shape="872.95,756.88 872.07,757.01 871.43,756.38 871.04,755.00"/>
    </edge>
    <edge id=":C5_8" function="internal">
        <lane id=":C5_8_0" index="0" speed="10.58" length="13.31" shape="860.55,762.50 864.58,760.93 867.67,759.16 869.83,757.18 871.04,755.00"/>
    </edge>
    <edge id=":C5_9" function="internal">
        <lane id=":C5_9_0" index="0" speed="10.71" length="19.95" shape="860.55,762.50 865.73,761.53 870.39,762.16 874.53,764.39 878.16,768.22"/>
    </edge>
    <edge id=":C5_10" function="internal">