<?xml version="1.0" encoding="UTF-8"?>

<!-- generated on 2024-09-03 10:20:55.679036 by osmWebWizard.py v1_20_0+0002-343658e7c64
<configuration>
    <net-file value="C:\Users\cri98\Sumo\2024-09-03-10-19-50\osm.net.xml.gz"/>
    <output-trip-file value="C:\Users\cri98\Sumo\2024-09-03-10-19-50\osm.passenger.trips.xml"/>
    <route-file value="C:\Users\cri98\Sumo\2024-09-03-10-19-50\osm.passenger.rou.xml"/>
    <prefix value="veh"/>
    <trip-attributes value="departLane=&quot;best&quot;"/>
    <fringe-start-attributes value="departSpeed=&quot;max&quot;"/>
    <vehicle-class value="passenger"/>
    <lanes value="True"/>
    <fringe-factor value="5"/>
    <allow-fringe.min-length value="1000.0"/>
    <via-edge-types value="highway.motorway,highway.motorway_link,highway.trunk_link,highway.primary_link,highway.secondary_link,highway.tertiary_link"/>
    <min-distance value="300.0"/>
    <min-distance.fringe value="10.0"/>
    <remove-loops value="True"/>
    <validate value="True"/>
    <insertion-density value="12.0"/>
</configuration>
-->

<!-- generated on 2024-09-03 10:20:53 by Eclipse SUMO duarouter Version 1.20.0
<configuration xmlns:xsi="http://www.w3.org/2001/XMLSchema-instance" xsi:noNamespaceSchemaLocation="http://sumo.dlr.de/xsd/duarouterConfiguration.xsd">

    <input>
        <net-file value="C:\Users\cri98\Sumo\2024-09-03-10-19-50\osm.net.xml.gz"/>
        <route-files value="C:\Users\cri98\Sumo\2024-09-03-10-19-50\osm.passenger.trips.xml"/>
    </input>

    <output>
        <output-file value="C:\Users\cri98\Sumo\2024-09-03-10-19-50\osm.passenger.trips.xml.tmp"/>
        <alternatives-output value="NUL"/>
        <write-trips value="true"/>
    </output>

    <processing>
        <remove-loops value="true"/>
    </processing>

    <time>
        <begin value="0.0"/>
        <end value="3600.0"/>
    </time>

    <report>
        <no-warnings value="true"/>
        <ignore-errors value="true"/>
        <no-step-log value="true"/>
    </report>

</configuration>
-->

<routes xmlns:xsi="http://www.w3.org/2001/XMLSchema-instance" xsi:noNamespaceSchemaLocation="http://sumo.dlr.de/xsd/routes_file.xsd">
    <vType id="veh_passenger" vClass="passenger"/>
    <trip id="veh0" type="veh_passenger" depart="0.00" departLane="best" from="46525058#1" to="-420872197#1"/>
    <trip id="veh1" type="veh_passenger" depart="0.69" departLane="best" from="194923794#1" to="125479721#1"/>
    <trip id="veh3" type="veh_passenger" depart="2.08" departLane="best" from="814278018#4" to="1025734020#1"/>
    <trip id="veh4" type="veh_passenger" depart="2.78" departLane="best" from="420499932#4" to="420908127#0"/>
    <trip id="veh5" type="veh_passenger" depart="3.47" departLane="best" from="1210909171#1" to="421853648#2"/>
    <trip id="veh6" type="veh_passenger" depart="4.17" departLane="best" from="-420598407#1" to="118714476#4"/>
    <trip id="veh7" type="veh_passenger" depart="4.86" departLane="best" from="480112483#1" to="458166897#19"/>
    <trip id="veh8" type="veh_passenger" depart="5.56" departLane="best" from="1211608942#1" to="46432187#1"/>
    <trip id="veh9" type="veh_passenger" depart="6.25" departLane="best" departSpeed="max" from="618990022#0" to="-1088325194"/>
    <trip id="veh10" type="veh_passenger" depart="6.95" departLane="best" from="600848485#1" to="518451322#1"/>
    <trip id="veh11" type="veh_passenger" depart="7.64" departLane="best" from="22897633#13" to="1087744935#5"/>
    <trip id="veh12" type="veh_passenger" depart="8.34" departLane="best" from="963575586#4" to="226092573#0"/>
    <trip id="veh13" type="veh_passenger" depart="9.03" departLane="best" from="1027130511#0" to="1027189509#3"/>
    <trip id="veh14" type="veh_passenger" depart="9.73" departLane="best" from="68668541#4" to="464683328#1"/>
    <trip id="veh15" type="veh_passenger" depart="10.42" departLane="best" departSpeed="max" from="60325668" to="5670296#4"/>
    <trip id="veh16" type="veh_passenger" depart="11.12" departLane="best" from="456409016#1" to="978320981#0"/>
    <trip id="veh17" type="veh_passenger" depart="11.81" departLane="best" from="368938761#1" to="458177129#1"/>
    <trip id="veh18" type="veh_passenger" depart="12.51" departLane="best" from="663634122#2" to="46482541#0"/>
    <trip id="veh19" type="veh_passenger" depart="13.20" departLane="best" from="194926849#1" to="46201647#1"/>
    <trip id="veh20" type="veh_passenger" depart="13.90" departLane="best" departSpeed="max" from="539018144" to="-561084838#2"/>
    <trip id="veh21" type="veh_passenger" depart="14.59" departLane="best" from="125480075#1" to="195743182#1"/>
    <trip id="veh22" type="veh_passenger" depart="15.29" departLane="best" from="1022184082#1" to="1267505843#0"/>
    <trip id="veh23" type="veh_passenger" depart="15.98" departLane="best" from="1027227121#1" to="194923805#1"/>
    <trip id="veh24" type="veh_passenger" depart="16.68" departLane="best" from="46521995#1" to="34080174#1"/>
    <trip id="veh25" type="veh_passenger" depart="17.37" departLane="best" from="348477349#1" to="1202586281#1"/>
    <trip id="veh26" type="veh_passenger" depart="18.07" departLane="best" from="169269031" to="95181768#4"/>
    <trip id="veh27" type="veh_passenger" depart="18.76" departLane="best" from="480112475#2" to="46469724#4"/>
    <trip id="veh28" type="veh_passenger" depart="19.46" departLane="best" from="1106482767#1" to="5670275#1"/>
    <trip id="veh29" type="veh_passenger" depart="20.15" departLane="best" from="1088325193#0" to="368938762#1"/>
    <trip id="veh30" type="veh_passenger" depart="20.84" departLane="best" from="989267825#3" to="46538371#1"/>
    <trip id="veh31" type="veh_passenger" depart="21.54" departLane="best" from="458177129#1" to="497746843#4"/>
    <trip id="veh32" type="veh_passenger" depart="22.23" departLane="best" from="68668519#1" to="5673613#1"/>
    <trip id="veh33" type="veh_passenger" depart="22.93" departLane="best" from="1266830886#4" to="-438389786#1"/>
    <trip id="veh34" type="veh_passenger" depart="23.62" departLane="best" from="198595549#1" to="169383518#3"/>
    <trip id="veh35" type="veh_passenger" depart="24.32" departLane="best" from="1201651434#0" to="954878305#0"/>
    <trip id="veh36" type="veh_passenger" depart="25.01" departLane="best" from="747908053" to="198924727#0"/>
    <trip id="veh37" type="veh_passenger" depart="25.71" departLane="best" from="492148704#1" to="384649120#6"/>
    <trip id="veh38" type="veh_passenger" depart="26.40" departLane="best" from="884400286#0" to="420872205#2"/>
    <trip id="veh39" type="veh_passenger" depart="27.10" departLane="best" from="169267539#1" to="1306277588#0"/>
    <trip id="veh40" type="veh_passenger" depart="27.79" departLane="best" from="458180187#1" to="169267541#1"/>
    <trip id="veh42" type="veh_passenger" depart="29.18" departLane="best" from="385668565#9" to="541350711#1"/>
    <trip id="veh43" type="veh_passenger" depart="29.88" departLane="best" from="992144531#2" to="433124968#9"/>
    <trip id="veh44" type="veh_passenger" depart="30.57" departLane="best" from="1027130509#1" to="-561084838#2"/>
    <trip id="veh45" type="veh_passenger" depart="31.27" departLane="best" from="1030119888#1" to="465098276#0"/>
    <trip id="veh46" type="veh_passenger" depart="31.96" departLane="best" from="569345544#1" to="420499932#1"/>
    <trip id="veh47" type="veh_passenger" depart="32.66" departLane="best" from="-763971141#2" to="375165664#0"/>
    <trip id="veh48" type="veh_passenger" depart="33.35" departLane="best" from="992132287" to="455125048#1"/>
    <trip id="veh49" type="veh_passenger" depart="34.05" departLane="best" from="974611016#2" to="710571392#0"/>
    <trip id="veh50" type="veh_passenger" depart="34.74" departLane="best" from="169267538#1" to="5669806#1"/>
    <trip id="veh51" type="veh_passenger" depart="35.44" departLane="best" from="497258109#2" to="458166892#4"/>
    <trip id="veh52" type="veh_passenger" depart="36.13" departLane="best" from="169269031" to="46608946#19"/>
    <trip id="veh53" type="veh_passenger" depart="36.83" departLane="best" from="1030119893#0" to="420598248#1"/>
    <trip id="veh54" type="veh_passenger" depart="37.52" departLane="best" from="420872194#0" to="375165666#1"/>
    <trip id="veh55" type="veh_passenger" depart="38.22" departLane="best" from="743358444#3" to="169269031"/>
    <trip id="veh56" type="veh_passenger" depart="38.91" departLane="best" from="421852030" to="1136391283#4"/>
    <trip id="veh57" type="veh_passenger" depart="39.61" departLane="best" from="873372086#0" to="733667933#4"/>
    <trip id="veh58" type="veh_passenger" depart="40.30" departLane="best" from="195743343#4" to="46522160#7"/>
    <trip id="veh59" type="veh_passenger" depart="40.99" departLane="best" from="464683341#1" to="1080982439#0"/>
    <trip id="veh60" type="veh_passenger" depart="41.69" departLane="best" from="5672176#4" to="458166896#1"/>
    <trip id="veh61" type="veh_passenger" depart="42.38" departLane="best" from="-5673605#1" to="456308944#0"/>
    <trip id="veh62" type="veh_passenger" depart="43.08" departLane="best" from="1040863520#4" to="226040999#1"/>
    <trip id="veh63" type="veh_passenger" depart="43.77" departLane="best" departSpeed="max" from="-36185649#2" to="936539648#2"/>
    <trip id="veh64" type="veh_passenger" depart="44.47" departLane="best" departSpeed="max" from="765274320" to="671212509#1"/>
    <trip id="veh65" type="veh_passenger" depart="45.16" departLane="best" from="196117039#1" to="-611258687#2"/>
    <trip id="veh66" type="veh_passenger" depart="45.86" departLane="best" from="763971141#1" to="954955255#0"/>
    <trip id="veh67" type="veh_passenger" depart="46.55" departLane="best" from="1023236297#0" to="420906752#1"/>
    <trip id="veh68" type="veh_passenger" depart="47.25" departLane="best" from="1004367243" to="5672176#1"/>
    <trip id="veh69" type="veh_passenger" depart="47.94" departLane="best" from="5672607#1" to="1049841322#7"/>
    <trip id="veh70" type="veh_passenger" depart="48.64" departLane="best" from="420901690#3" to="458166897#37"/>
    <trip id="veh71" type="veh_passenger" depart="49.33" departLane="best" from="169267539#1" to="743358444#2"/>
    <trip id="veh72" type="veh_passenger" depart="50.03" departLane="best" from="420512231#1" to="1203138885#1"/>
    <trip id="veh73" type="veh_passenger" depart="50.72" departLane="best" from="458106345#6" to="5670297#1"/>
    <trip id="veh74" type="veh_passenger" depart="51.42" departLane="best" departSpeed="max" from="1186131872" to="198595470"/>
    <trip id="veh75" type="veh_passenger" depart="52.11" departLane="best" from="989793293#1" to="480112480#1"/>
    <trip id="veh76" type="veh_passenger" depart="52.81" departLane="best" from="420598332#0" to="439933933#1"/>
    <trip id="veh77" type="veh_passenger" depart="53.50" departLane="best" from="1036712190" to="1266830886#1"/>
    <trip id="veh78" type="veh_passenger" depart="54.20" departLane="best" from="226092571#1" to="46431825#1"/>
    <trip id="veh79" type="veh_passenger" depart="54.89" departLane="best" from="1266830887#0" to="1224490987#1"/>
    <trip id="veh80" type="veh_passenger" depart="55.59" departLane="best" from="1018454469#1" to="46518732"/>
    <trip id="veh81" type="veh_passenger" depart="56.28" departLane="best" from="1266830886#1" to="852992107#0"/>
    <trip id="veh82" type="veh_passenger" depart="56.98" departLane="best" departSpeed="max" from="706833047#0" to="1014414688#7"/>
    <trip id="veh83" type="veh_passenger" depart="57.67" departLane="best" from="1268207915#1" to="496986803#9"/>
    <trip id="veh84" type="veh_passenger" depart="58.37" departLane="best" from="1202586282#8" to="1050255674#2"/>
    <trip id="veh85" type="veh_passenger" depart="59.06" departLane="best" from="954178925#0" to="460585328#16"/>
    <trip id="veh86" type="veh_passenger" depart="59.75" departLane="best" from="420901683#1" to="569345535#0"/>
    <trip id="veh87" type="veh_passenger" depart="60.45" departLane="best" departSpeed="max" from="60325668" to="1157664114#0"/>
    <trip id="veh88" type="veh_passenger" depart="61.14" departLane="best" from="1027189508#0" to="420598230#5"/>
    <trip id="veh89" type="veh_passenger" depart="61.84" departLane="best" from="420514149#1" to="420901673#1"/>
    <trip id="veh90" type="veh_passenger" depart="62.53" departLane="best" from="5670225#1" to="-496992369#1"/>
    <trip id="veh91" type="veh_passenger" depart="63.23" departLane="best" from="989265269#1" to="1027206709#4"/>
    <trip id="veh92" type="veh_passenger" depart="63.92" departLane="best" from="388240124#21" to="22904149#1"/>
    <trip id="veh93" type="veh_passenger" depart="64.62" departLane="best" from="708353367#1" to="1308875367#1"/>
    <trip id="veh94" type="veh_passenger" depart="65.31" departLane="best" from="1156946159#1" to="420806145#1"/>
    <trip id="veh95" type="veh_passenger" depart="66.01" departLane="best" from="420499932#4" to="194923807#1"/>
    <trip id="veh97" type="veh_passenger" depart="67.40" departLane="best" from="-420598373#0" to="710571392#1"/>
    <trip id="veh98" type="veh_passenger" depart="68.09" departLane="best" from="458166897#22" to="-5671365#0"/>
    <trip id="veh99" type="veh_passenger" depart="68.79" departLane="best" from="1086962994#0" to="686125781#1"/>
    <trip id="veh100" type="veh_passenger" depart="69.48" departLane="best" from="970704072#1" to="68668537#4"/>
    <trip id="veh101" type="veh_passenger" depart="70.18" departLane="best" from="68674960#0" to="110489638#1"/>
    <trip id="veh102" type="veh_passenger" depart="70.87" departLane="best" from="420904838" to="1207834768#0"/>
    <trip id="veh103" type="veh_passenger" depart="71.57" departLane="best" from="388240124#10" to="628093103#2"/>
    <trip id="veh104" type="veh_passenger" depart="72.26" departLane="best" from="368938762#1" to="989265273#1"/>
    <trip id="veh105" type="veh_passenger" depart="72.96" departLane="best" from="169267539#1" to="569345525#0"/>
    <trip id="veh106" type="veh_passenger" depart="73.65" departLane="best" from="420872205#1" to="420499932#4"/>
    <trip id="veh107" type="veh_passenger" depart="74.35" departLane="best" from="963575586#4" to="989793295#1"/>
    <trip id="veh108" type="veh_passenger" depart="75.04" departLane="best" from="458166897#7" to="-561084838#5"/>
    <trip id="veh109" type="veh_passenger" depart="75.74" departLane="best" from="1081648975#2" to="195743345#1"/>
    <trip id="veh110" type="veh_passenger" depart="76.43" departLane="best" from="968513231#1" to="46201655#4"/>
    <trip id="veh111" type="veh_passenger" depart="77.13" departLane="best" from="458166892#4" to="5671429#11"/>
    <trip id="veh112" type="veh_passenger" depart="77.82" departLane="best" from="-616745173#1" to="46334597#2"/>
    <trip id="veh113" type="veh_passenger" depart="78.52" departLane="best" from="421852041" to="68674962#5"/>
    <trip id="veh114" type="veh_passenger" depart="79.21" departLane="best" from="1087744935#5" to="966105510#0"/>
    <trip id="veh115" type="veh_passenger" depart="79.90" departLane="best" from="1022184082#1" to="1150636499#1"/>
    <trip id="veh116" type="veh_passenger" depart="80.60" departLane="best" from="46443656#10" to="496993765#1"/>
    <trip id="veh117" type="veh_passenger" depart="81.29" departLane="best" from="1266830893#0" to="1037772578#1"/>
    <trip id="veh118" type="veh_passenger" depart="81.99" departLane="best" from="813970416#1" to="1306277587#1"/>
    <trip id="veh119" type="veh_passenger" depart="82.68" departLane="best" from="46435596#3" to="46482602#0"/>
    <trip id="veh120" type="veh_passenger" depart="83.38" departLane="best" from="420496091#4" to="46334595#0"/>
    <trip id="veh121" type="veh_passenger" depart="84.07" departLane="best" departSpeed="max" from="439933946" to="95181768#2"/>
    <trip id="veh122" type="veh_passenger" depart="84.77" departLane="best" from="1187622116" to="554083353#1"/>
    <trip id="veh123" type="veh_passenger" depart="85.46" departLane="best" from="1271749957#0" to="384649120#6"/>
    <trip id="veh124" type="veh_passenger" depart="86.16" departLane="best" from="496990647#4" to="196116976#7"/>
    <trip id="veh125" type="veh_passenger" depart="86.85" departLane="best" from="198924552#1" to="5671668#5"/>
    <trip id="veh126" type="veh_passenger" depart="87.55" departLane="best" from="1021037338" to="420872204#1"/>
    <trip id="veh127" type="veh_passenger" depart="88.24" departLane="best" from="421852030" to="992132287"/>
    <trip id="veh128" type="veh_passenger" depart="88.94" departLane="best" from="169267539#1" to="945384091#1"/>
    <trip id="veh129" type="veh_passenger" depart="89.63" departLane="best" from="767683114#1" to="779661114#0"/>
    <trip id="veh130" type="veh_passenger" depart="90.33" departLane="best" from="348477348#2" to="-489019753"/>
    <trip id="veh131" type="veh_passenger" depart="91.02" departLane="best" from="46469724#2" to="989265274#1"/>
    <trip id="veh132" type="veh_passenger" depart="91.72" departLane="best" from="489375009" to="1090755974#1"/>
    <trip id="veh133" type="veh_passenger" depart="92.41" departLane="best" from="619280617#0" to="196116976#1"/>
    <trip id="veh134" type="veh_passenger" depart="93.11" departLane="best" from="496986803#1" to="954178926#1"/>
    <trip id="veh135" type="veh_passenger" depart="93.80" departLane="best" from="1050255674#2" to="1031879418#2"/>
    <trip id="veh136" type="veh_passenger" depart="94.50" departLane="best" departSpeed="max" from="1030119887#0" to="458177133#1"/>
    <trip id="veh137" type="veh_passenger" depart="95.19" departLane="best" from="194920158#13" to="464683329#7"/>
    <trip id="veh138" type="veh_passenger" depart="95.89" departLane="best" from="554083353#1" to="1197056479"/>
    <trip id="veh139" type="veh_passenger" depart="96.58" departLane="best" from="46521993#2" to="169381958#1"/>
    <trip id="veh140" type="veh_passenger" depart="97.28" departLane="best" from="420906755#1" to="852992107#0"/>
    <trip id="veh141" type="veh_passenger" depart="97.97" departLane="best" from="68668537#4" to="1027130512#0"/>
    <trip id="veh142" type="veh_passenger" depart="98.67" departLane="best" from="464683341#4" to="992132288#1"/>
    <trip id="veh143" type="veh_passenger" depart="99.36" departLane="best" from="1088005912#0" to="5673102#6"/>
    <trip id="veh144" type="veh_passenger" depart="100.05" departLane="best" from="46522003#1" to="169267539#1"/>
    <trip id="veh145" type="veh_passenger" depart="100.75" departLane="best" departSpeed="max" from="5670891#0" to="458177128#1"/>
    <trip id="veh146" type="veh_passenger" depart="101.44" departLane="best" from="420522049#7" to="-1272152371"/>
    <trip id="veh147" type="veh_passenger" depart="102.14" departLane="best" from="1021068251#1" to="808190579#0"/>
    <trip id="veh148" type="veh_passenger" depart="102.83" departLane="best" from="852992101#0" to="458166897#22"/>
    <trip id="veh149" type="veh_passenger" depart="103.53" departLane="best" from="671208358#10" to="46334593#1"/>
    <trip id="veh150" type="veh_passenger" depart="104.22" departLane="best" from="1059309735" to="1049841322#10"/>
    <trip id="veh151" type="veh_passenger" depart="104.92" departLane="best" from="584971499#0" to="710571391#2"/>
    <trip id="veh152" type="veh_passenger" depart="105.61" departLane="best" from="846142553#2" to="1202586282#8"/>
    <trip id="veh154" type="veh_passenger" depart="107.00" departLane="best" from="569345480#0" to="808473896#5"/>
    <trip id="veh155" type="veh_passenger" depart="107.70" departLane="best" from="388696207#4" to="46490538#1"/>
    <trip id="veh156" type="veh_passenger" depart="108.39" departLane="best" from="1080982439#0" to="936539648#4"/>
    <trip id="veh157" type="veh_passenger" depart="109.09" departLane="best" from="710571392#0" to="986615539#0"/>
    <trip id="veh158" type="veh_passenger" depart="109.78" departLane="best" from="618990022#1" to="803047266#1"/>
    <trip id="veh159" type="veh_passenger" depart="110.48" departLane="best" from="420356169#3" to="5670787#3"/>
    <trip id="veh160" type="veh_passenger" depart="111.17" departLane="best" from="226041025#1" to="939444709"/>
    <trip id="veh161" type="veh_passenger" depart="111.87" departLane="best" from="588157336#1" to="711147864#1"/>
    <trip id="veh162" type="veh_passenger" depart="112.56" departLane="best" from="618990022#1" to="169383517"/>
    <trip id="veh163" type="veh_passenger" depart="113.26" departLane="best" from="569345535#0" to="1030119892#1"/>
    <trip id="veh164" type="veh_passenger" depart="113.95" departLane="best" from="729972919#1" to="710571388#1"/>
    <trip id="veh165" type="veh_passenger" depart="114.65" departLane="best" from="1213301201" to="630828586#1"/>
    <trip id="veh166" type="veh_passenger" depart="115.34" departLane="best" departSpeed="max" from="420892265#0" to="196117051#4"/>
    <trip id="veh167" type="veh_passenger" depart="116.04" departLane="best" from="579565233#0" to="1266830889#1"/>
    <trip id="veh168" type="veh_passenger" depart="116.73" departLane="best" from="388696206#1" to="1167924989#0"/>
    <trip id="veh169" type="veh_passenger" depart="117.43" departLane="best" from="226041005#1" to="711147864#3"/>
    <trip id="veh170" type="veh_passenger" depart="118.12" departLane="best" from="968394456#0" to="194923807#4"/>
    <trip id="veh171" type="veh_passenger" depart="118.82" departLane="best" from="46609036#1" to="385668565#8"/>
    <trip id="veh173" type="veh_passenger" depart="120.20" departLane="best" from="954552256#2" to="1031879418#1"/>
    <trip id="veh174" type="veh_passenger" depart="120.90" departLane="best" from="974611016#0" to="460585328#16"/>
    <trip id="veh175" type="veh_passenger" depart="121.59" departLane="best" from="968394450#0" to="169381962#1"/>
    <trip id="veh176" type="veh_passenger" depart="122.29" departLane="best" departSpeed="max" from="1030119887#0" to="420598248#1"/>
    <trip id="veh177" type="veh_passenger" depart="122.98" departLane="best" from="5670171#5" to="198924552#5"/>
    <trip id="veh178" type="veh_passenger" depart="123.68" departLane="best" from="464683327#1" to="438384743"/>
    <trip id="veh179" type="veh_passenger" depart="124.37" departLane="best" from="379843705" to="46201642#1"/>
    <trip id="veh180" type="veh_passenger" depart="125.07" departLane="best" from="-139919706#0" to="-542096278#1"/>
    <trip id="veh181" type="veh_passenger" depart="125.76" departLane="best" from="-1080982433#0" to="913911309"/>
    <trip id="veh182" type="veh_passenger" depart="126.46" departLane="best" from="457948936#1" to="5669227#1"/>
    <trip id="veh183" type="veh_passenger" depart="127.15" departLane="best" from="-5670924#1" to="496989301#0"/>
    <trip id="veh184" type="veh_passenger" depart="127.85" departLane="best" from="336872313#1" to="1007833787#0"/>
    <trip id="veh185" type="veh_passenger" depart="128.54" departLane="best" from="496986803#10" to="226041025#2"/>
    <trip id="veh186" type="veh_passenger" depart="129.24" departLane="best" from="198595461#18" to="68668558"/>
    <trip id="veh187" type="veh_passenger" depart="129.93" departLane="best" from="561084838#8" to="196117001#1"/>
    <trip id="veh188" type="veh_passenger" depart="130.63" departLane="best" from="196117051#4" to="396444293#3"/>
    <trip id="veh189" type="veh_passenger" depart="131.32" departLane="best" from="388240124#18" to="195743343#4"/>
    <trip id="veh190" type="veh_passenger" depart="132.02" departLane="best" from="1042964169#2" to="420496091#4"/>
    <trip id="veh191" type="veh_passenger" depart="132.71" departLane="best" from="954826394#0" to="497165753#4"/>
    <trip id="veh192" type="veh_passenger" depart="133.41" departLane="best" from="852992099#0" to="-46481744#3"/>
    <trip id="veh193" type="veh_passenger" depart="134.10" departLane="best" departSpeed="max" from="195743557#0" to="458166897#28"/>
    <trip id="veh194" type="veh_passenger" depart="134.80" departLane="best" from="1040863520#4" to="194926854#0"/>
    <trip id="veh195" type="veh_passenger" depart="135.49" departLane="best" from="420598230#2" to="46211835#1"/>
    <trip id="veh196" type="veh_passenger" depart="136.19" departLane="best" from="492148702#0" to="992132287"/>
    <trip id="veh197" type="veh_passenger" depart="136.88" departLane="best" from="420598366#1" to="1207834768#0"/>
    <trip id="veh198" type="veh_passenger" depart="137.58" departLane="best" from="420901683#1" to="852992099#0"/>
    <trip id="veh199" type="veh_passenger" depart="138.27" departLane="best" from="584971499#0" to="1106482767#1"/>
    <trip id="veh200" type="veh_passenger" depart="138.97" departLane="best" from="1023167223#1" to="438397345#1"/>
    <trip id="veh201" type="veh_passenger" depart="139.66" departLane="best" from="46520833#4" to="226041042#1"/>
    <trip id="veh202" type="veh_passenger" depart="140.35" departLane="best" from="626514137#1" to="5671663#2"/>
    <trip id="veh203" type="veh_passenger" depart="141.05" departLane="best" from="458180191#1" to="1266830886#1"/>
    <trip id="veh204" type="veh_passenger" depart="141.74" departLane="best" departSpeed="max" from="1186131872" to="420522695#1"/>
    <trip id="veh205" type="veh_passenger" depart="142.44" departLane="best" from="127693383#7" to="420901921#1"/>
    <trip id="veh206" type="veh_passenger" depart="143.13" departLane="best" from="68674961#10" to="1020835925#1"/>
    <trip id="veh207" type="veh_passenger" depart="143.83" departLane="best" from="397795464#1" to="46518731#2"/>
    <trip id="veh208" type="veh_passenger" depart="144.52" departLane="best" from="1167924989#1" to="511755381#2"/>
    <trip id="veh209" type="veh_passenger" depart="145.22" departLane="best" from="420908134" to="1306214127"/>
    <trip id="veh210" type="veh_passenger" depart="145.91" departLane="best" from="492148706#1" to="1088320655#0"/>
    <trip id="veh211" type="veh_passenger" depart="146.61" departLane="best" from="5671429#7" to="5673052#4"/>
    <trip id="veh212" type="veh_passenger" depart="147.30" departLane="best" departSpeed="max" from="1030119887#0" to="464683341#1"/>
    <trip id="veh213" type="veh_passenger" depart="148.00" departLane="best" from="1135346523#1" to="963856064#0"/>
    <trip id="veh214" type="veh_passenger" depart="148.69" departLane="best" from="438385431#4" to="-5671315#1"/>
    <trip id="veh215" type="veh_passenger" depart="149.39" departLane="best" from="1306214131#0" to="68674960#0"/>
    <trip id="veh216" type="veh_passenger" depart="150.08" departLane="best" from="420890025#1" to="589494595#1"/>
    <trip id="veh217" type="veh_passenger" depart="150.78" departLane="best" from="496986803#8" to="989265274#3"/>
    <trip id="veh218" type="veh_passenger" depart="151.47" departLane="best" from="46443656#17" to="959157334"/>
    <trip id="veh219" type="veh_passenger" depart="152.17" departLane="best" from="813972136#1" to="46481095#3"/>
    <trip id="veh220" type="veh_passenger" depart="152.86" departLane="best" from="561084838#2" to="421853647"/>
    <trip id="veh221" type="veh_passenger" depart="153.56" departLane="best" from="664660185#1" to="458166897#28"/>
    <trip id="veh222" type="veh_passenger" depart="154.25" departLane="best" from="846046868#1" to="5671192#4"/>
    <trip id="veh223" type="veh_passenger" depart="154.95" departLane="best" from="420901690#2" to="167922072#1"/>
    <trip id="veh224" type="veh_passenger" depart="155.64" departLane="best" from="1306214126" to="46522006#2"/>
    <trip id="veh225" type="veh_passenger" depart="156.34" departLane="best" from="5672607#1" to="447001270#1"/>
    <trip id="veh226" type="veh_passenger" depart="157.03" departLane="best" from="465000799#0" to="194923800#4"/>
    <trip id="veh227" type="veh_passenger" depart="157.73" departLane="best" from="1021481768#1" to="194926850#0"/>
    <trip id="veh228" type="veh_passenger" depart="158.42" departLane="best" from="194920158#10" to="222299276#1"/>
    <trip id="veh229" type="veh_passenger" depart="159.12" departLane="best" from="458106346#5" to="1051841852#1"/>
    <trip id="veh230" type="veh_passenger" depart="159.81" departLane="best" from="1266830889#1" to="511699183#1"/>
    <trip id="veh231" type="veh_passenger" depart="160.50" departLane="best" from="541330444#1" to="806472902#1"/>
    <trip id="veh232" type="veh_passenger" depart="161.20" departLane="best" from="396444293#3" to="458166897#10"/>
    <trip id="veh233" type="veh_passenger" depart="161.89" departLane="best" from="-420356168#3" to="1201651434#0"/>
    <trip id="veh234" type="veh_passenger" depart="162.59" departLane="best" from="420496529#1" to="852992105#3"/>
    <trip id="veh236" type="veh_passenger" depart="163.98" departLane="best" from="68674968#4" to="5672752#1"/>
    <trip id="veh237" type="veh_passenger" depart="164.67" departLane="best" from="375165501#1" to="939613200#1"/>
    <trip id="veh238" type="veh_passenger" depart="165.37" departLane="best" departSpeed="max" from="308322448" to="5671709#2"/>
    <trip id="veh239" type="veh_passenger" depart="166.06" departLane="best" departSpeed="max" from="68674962#2" to="962813251#3"/>
    <trip id="veh240" type="veh_passenger" depart="166.76" departLane="best" from="420496091#1" to="5671425#2"/>
    <trip id="veh241" type="veh_passenger" depart="167.45" departLane="best" from="458166896#7" to="464683323#1"/>
    <trip id="veh242" type="veh_passenger" depart="168.15" departLane="best" from="1211608942#1" to="541350711#1"/>
    <trip id="veh243" type="veh_passenger" depart="168.84" departLane="best" from="420598294#1" to="-420904621#1"/>
    <trip id="veh244" type="veh_passenger" depart="169.54" departLane="best" from="226041032#5" to="497165757#1"/>
    <trip id="veh245" type="veh_passenger" depart="170.23" departLane="best" from="388240124#4" to="1090370026#1"/>
    <trip id="veh246" type="veh_passenger" depart="170.93" departLane="best" from="420895277#0" to="1049841322#13"/>