<?xml version="1.0" encoding="UTF-8"?>

<!-- generated on 2024-09-03 10:30:04.953062 by osmWebWizard.py v1_20_0+0002-343658e7c64
<configuration>
    <net-file value="C:\Users\cri98\Sumo\2024-09-03-10-29-53\osm.net.xml.gz"/>
    <output-trip-file value="C:\Users\cri98\Sumo\2024-09-03-10-29-53\osm.passenger.trips.xml"/>
    <route-file value="C:\Users\cri98\Sumo\2024-09-03-10-29-53\osm.passenger.rou.xml"/>
    <prefix value="veh"/>
    <trip-attributes value="departLane=&quot;best&quot;"/>
    <fringe-start-attributes value="departSpeed=&quot;max&quot;"/>
    <vehicle-class value="passenger"/>
    <lanes value="True"/>
    <fringe-factor value="5"/>
    <allow-fringe.min-length value="1000.0"/>
    <via-edge-types value="highway.motorway,highway.motorway_link,highway.trunk_link,highway.primary_link,highway.secondary_link,highway.tertiary_link"/>
    <min-distance value="300.0"/>
    <min-distance.fringe value="10.0"/>
    <remove-loops value="True"/>
    <validate value="True"/>
    <insertion-density value="12.0"/>
</configuration>
-->

<!-- generated on 2024-09-03 10:30:04 by Eclipse SUMO duarouter Version 1.20.0
<configuration xmlns:xsi="http://www.w3.org/2001/XMLSchema-instance" xsi:noNamespaceSchemaLocation="http://sumo.dlr.de/xsd/duarouterConfiguration.xsd">

    <input>
        <net-file value="C:\Users\cri98\Sumo\2024-09-03-10-29-53\osm.net.xml.gz"/>
        <route-files value="C:\Users\cri98\Sumo\2024-09-03-10-29-53\osm.passenger.trips.xml"/>
    </input>

    <output>
        <output-file value="C:\Users\cri98\Sumo\2024-09-03-10-29-53\osm.passenger.trips.xml.tmp"/>
        <alternatives-output value="NUL"/>
        <write-trips value="true"/>
    </output>

    <processing>
        <remove-loops value="true"/>
    </processing>

    <time>
        <begin value="0.0"/>
        <end value="3600.0"/>
    </time>

    <report>
        <no-warnings value="true"/>
        <ignore-errors value="true"/>
        <no-step-log value="true"/>
    </report>

</configuration>
-->

<routes xmlns:xsi="http://www.w3.org/2001/XMLSchema-instance" xsi:noNamespaceSchemaLocation="http://sumo.dlr.de/xsd/routes_file.xsd">
    <vType id="my_passenger" vClass="passenger"/>
    <vType id="my_bicycle" vClass="bicycle"/>

    <vTypeDistribution id="veh_passenger" vTypes="my_bicycle my_passenger"/>

    <trip id="veh0" type="veh_passenger" depart="0.00" departLane="best" from="-23920541#2" to="121466674#1"/>
    <trip id="veh1" type="veh_passenger" depart="2.43" departLane="best" from="121466672#3" to="1175846067"/>
    <trip id="veh2" type="veh_passenger" depart="4.86" departLane="best" from="26785946#0" to="23951181#4"/>
    <trip id="veh3" type="veh_passenger" depart="7.29" departLane="best" from="30068380#1" to="-211541524"/>
    <trip id="veh4" type="veh_passenger" depart="9.72" departLane="best" from="184548836#0" to="-124034725#2"/>
    <trip id="veh5" type="veh_passenger" depart="12.15" departLane="best" from="-96250597" to="20878286#4"/>
    <trip id="veh6" type="veh_passenger" depart="14.58" departLane="best" from="121466672#3" to="101600455#3"/>
    <trip id="veh7" type="veh_passenger" depart="17.02" departLane="best" from="23920668#1" to="235115224#1"/>
    <trip id="veh9" type="veh_passenger" depart="21.88" departLane="best" from="27159520#0" to="-108131119#1"/>
    <trip id="veh10" type="veh_passenger" depart="24.31" departLane="best" from="27159200#9" to="248918659"/>
    <trip id="veh11" type="veh_passenger" depart="26.74" departLane="best" from="124516087" to="27313556#0"/>
    <trip id="veh12" type="veh_passenger" depart="29.17" departLane="best" from="76715041" to="130248357#1"/>
    <trip id="veh13" type="veh_passenger" depart="31.60" departLane="best" departSpeed="max" from="-211541523" to="121900418"/>
    <trip id="veh14" type="veh_passenger" depart="34.03" departLane="best" from="280660801" to="23920319#1"/>
    <trip id="veh15" type="veh_passenger" depart="36.46" departLane="best" from="27159352" to="26801864#1"/>
    <trip id="veh17" type="veh_passenger" depart="41.32" departLane="best" from="144943401" to="235467866#3"/>
    <trip id="veh18" type="veh_passenger" depart="43.75" departLane="best" from="27313922" to="23920633#0"/>
    <trip id="veh19" type="veh_passenger" depart="46.18" departLane="best" from="28209303#1" to="23919427#3"/>
    <trip id="veh20" type="veh_passenger" depart="48.62" departLane="best" departSpeed="max" from="24163774" to="178854783#0"/>
    <trip id="veh22" type="veh_passenger" depart="53.48" departLane="best" from="-201611851" to="118762941"/>
    <trip id="veh23" type="veh_passenger" depart="55.91" departLane="best" from="23920509#2" to="151573312"/>
    <trip id="veh24" type="veh_passenger" depart="58.34" departLane="best" departSpeed="max" from="143494725" to="108881072#0"/>
    <trip id="veh25" type="veh_passenger" depart="60.77" departLane="best" from="121464275" to="68025430#0"/>
    <trip id="veh26" type="veh_passenger" depart="63.20" departLane="best" from="27159746" to="26801864#0"/>
    <trip id="veh27" type="veh_passenger" depart="65.63" departLane="best" from="26957263#0" to="169787949"/>
    <trip id="veh28" type="veh_passenger" depart="68.06" departLane="best" from="96250600#0" to="23920977"/>
    <trip id="veh29" type="veh_passenger" depart="70.49" departLane="best" from="215479495#1" to="23951261"/>
    <trip id="veh31" type="veh_passenger" depart="75.35" departLane="best" from="103835057#1" to="124046241#2"/>
    <trip id="veh33" type="veh_passenger" depart="80.21" departLane="best" from="-76715036#1" to="681788680"/>
    <trip id="veh35" type="veh_passenger" depart="85.08" departLane="best" from="-23920811" to="184454096"/>
    <trip id="veh36" type="veh_passenger" depart="87.51" departLane="best" from="38280152#2" to="196784142#2"/>
    <trip id="veh38" type="veh_passenger" depart="92.37" departLane="best" from="220538943#1" to="121900398#2"/>
    <trip id="veh40" type="veh_passenger" depart="97.23" departLane="best" from="169542376#0" to="114885425#0"/>
    <trip id="veh41" type="veh_passenger" depart="99.66" departLane="best" from="96250610" to="20894090"/>
    <trip id="veh42" type="veh_passenger" depart="102.09" departLane="best" from="-23919442" to="23920815#1"/>
    <trip id="veh43" type="veh_passenger" depart="104.52" departLane="best" from="27159007" to="184551771#0"/>
    <trip id="veh45" type="veh_passenger" depart="109.38" departLane="best" from="-96250606" to="215479495#6"/>
    <trip id="veh46" type="veh_passenger" depart="111.81" departLane="best" from="-949327335" to="30060427#2"/>
    <trip id="veh47" type="veh_passenger" depart="114.25" departLane="best" from="-109156508" to="26785946#1"/>
    <trip id="veh49" type="veh_passenger" depart="119.11" departLane="best" from="121464275" to="23920988"/>
    <trip id="veh50" type="veh_passenger" depart="121.54" departLane="best" from="-23919598#1" to="-189536618#1"/>
    <trip id="veh51" type="veh_passenger" depart="123.97" departLane="best" from="187398932" to="76715036#1"/>
    <trip id="veh52" type="veh_passenger" depart="126.40" departLane="best" from="30059073#1" to="121900398#3"/>
    <trip id="veh53" type="veh_passenger" depart="128.83" departLane="best" from="202304097#1" to="-68025428#1"/>
    <trip id="veh54" type="veh_passenger" depart="131.26" departLane="best" from="38280083#0" to="30068380#1"/>
    <trip id="veh55" type="veh_passenger" depart="133.69" departLane="best" from="121900417" to="23920951"/>
    <trip id="veh56" type="veh_passenger" depart="136.12" departLane="best" from="23919500#0" to="-27159955"/>
    <trip id="veh58" type="veh_passenger" depart="140.98" departLane="best" from="27031209#3" to="218809737#0"/>
    <trip id="veh60" type="veh_passenger" depart="145.85" departLane="best" from="-118762926" to="184548837"/>
    <trip id="veh61" type="veh_passenger" depart="148.28" departLane="best" from="30060160#0" to="28192860"/>
    <trip id="veh62" type="veh_passenger" depart="150.71" departLane="best" from="122227135" to="-187398938#1"/>
    <trip id="veh63" type="veh_passenger" depart="153.14" departLane="best" from="30060135#1" to="682376848"/>
    <trip id="veh64" type="veh_passenger" depart="155.57" departLane="best" from="-202304096" to="202591020#2"/>
    <trip id="veh66" type="veh_passenger" depart="160.43" departLane="best" from="26958298#5" to="-23951089#0"/>
    <trip id="veh67" type="veh_passenger" depart="162.86" departLane="best" from="193903676" to="235115228#4"/>
    <trip id="veh69" type="veh_passenger" depart="167.72" departLane="best" from="184548836#2" to="108881085#4"/>
    <trip id="veh72" type="veh_passenger" depart="175.01" departLane="best" from="143400006" to="23949260#3"/>
    <trip id="veh73" type="veh_passenger" depart="177.45" departLane="best" from="184551762#0" to="211541523"/>
    <trip id="veh74" type="veh_passenger" depart="179.88" departLane="best" from="-23920592#4" to="118741430"/>
    <trip id="veh75" type="veh_passenger" depart="182.31" departLane="best" from="124516079#2" to="23920058#2"/>
    <trip id="veh77" type="veh_passenger" depart="187.17" departLane="best" from="189558680" to="23920831#1"/>
    <trip id="veh78" type="veh_passenger" depart="189.60" departLane="best" from="103835057#1" to="38280082"/>
    <trip id="veh80" type="veh_passenger" depart="194.46" departLane="best" from="108881072#1" to="23949491"/>
    <trip id="veh81" type="veh_passenger" depart="196.89" departLane="best" from="-95467758#1" to="-26593125"/>
    <trip id="veh83" type="veh_passenger" depart="201.75" departLane="best" from="-192110346" to="27159200#14"/>
    <trip id="veh84" type="veh_passenger" depart="204.18" departLane="best" from="220538943#5" to="185586106#0"/>
    <trip id="veh85" type="veh_passenger" depart="206.61" departLane="best" from="184548836#2" to="202141638#1"/>
    <trip id="veh86" type="veh_passenger" depart="209.04" departLane="best" from="26593217#0" to="23951119#0"/>
    <trip id="veh88" type="veh_passenger" depart="213.91" departLane="best" from="169542378" to="130248371#0"/>
    <trip id="veh89" type="veh_passenger" depart="216.34" departLane="best" from="28209303#1" to="-121466672#3"/>
    <trip id="veh90" type="veh_passenger" depart="218.77" departLane="best" from="-30061117#1" to="190502847#2"/>
    <trip id="veh91" type="veh_passenger" depart="221.20" departLane="best" from="184548836#0" to="121916628"/>
    <trip id="veh93" type="veh_passenger" depart="226.06" departLane="best" from="184680513#1" to="30060427#2"/>
    <trip id="veh94" type="veh_passenger" depart="228.49" departLane="best" departSpeed="max" from="211541524" to="-184548845"/>
    <trip id="veh95" type="veh_passenger" depart="230.92" departLane="best" from="97848368#0" to="28209303#0"/>
    <trip id="veh96" type="veh_passenger" depart="233.35" departLane="best" from="124516096#2" to="-551466299"/>
    <trip id="veh97" type="veh_passenger" depart="235.78" departLane="best" from="280660805" to="-30060813#0"/>
    <trip id="veh98" type="veh_passenger" depart="238.21" departLane="best" departSpeed="max" from="197065746" to="-109156508"/>
    <trip id="veh99" type="veh_passenger" depart="240.64" departLane="best" from="169542376#2" to="-189536618#0"/>
    <trip id="veh102" type="veh_passenger" depart="247.94" departLane="best" from="187398938#0" to="184551774"/>
    <trip id="veh103" type="veh_passenger" depart="250.37" departLane="best" from="215479495#0" to="26665663"/>
    <trip id="veh104" type="veh_passenger" depart="252.80" departLane="best" departSpeed="max" from="-26801864#1" to="124046247#0"/>
    <trip id="veh105" type="veh_passenger" depart="255.23" departLane="best" from="93814015#4" to="23919442"/>
    <trip id="veh107" type="veh_passenger" depart="260.09" departLane="best" departSpeed="max" from="-184454096" to="23919598#2"/>
    <trip id="veh109" type="veh_passenger" depart="264.95" departLane="best" departSpeed="max" from="-26801919" to="-891590309#1"/>
    <trip id="veh110" type="veh_passenger" depart="267.38" departLane="best" from="-201611851" to="95199592"/>
    <trip id="veh112" type="veh_passenger" depart="272.24" departLane="best" from="108131120" to="23920668#0"/>
    <trip id="veh113" type="veh_passenger" depart="274.68" departLane="best" from="-30061117#1" to="121466672#0"/>
    <trip id="veh115" type="veh_passenger" depart="279.54" departLane="best" from="184454097" to="-23919598#1"/>
    <trip id="veh116" type="veh_passenger" depart="281.97" departLane="best" from="207355445#0" to="68025425#0"/>
    <trip id="veh117" type="veh_passenger" depart="284.40" departLane="best" from="-68025430#2" to="-26596047#0"/>
    <trip id="veh118" type="veh_passenger" depart="286.83" departLane="best" from="-169542376#1" to="184454096"/>
    <trip id="veh119" type="veh_passenger" depart="289.26" departLane="best" from="23921179#5" to="124046247#6"/>
    <trip id="veh121" type="veh_passenger" depart="294.12" departLane="best" departSpeed="max" from="-189733333" to="196784142#2"/>
    <trip id="veh122" type="veh_passenger" depart="296.55" departLane="best" from="-190022894" to="108881085#7"/>
    <trip id="veh124" type="veh_passenger" depart="301.41" departLane="best" from="30060371" to="35275707"/>
    <trip id="veh127" type="veh_passenger" depart="308.71" departLane="best" from="23919598#0" to="96250598"/>
    <trip id="veh129" type="veh_passenger" depart="313.57" departLane="best" departSpeed="max" from="27209485" to="124046247#4"/>
    <trip id="veh130" type="veh_passenger" depart="316.00" departLane="best" from="23920886#0" to="68025434#1"/>
    <trip id="veh131" type="veh_passenger" depart="318.43" departLane="best" from="23949382#1" to="23920592#2"/>
    <trip id="veh132" type="veh_passenger" depart="320.86" departLane="best" from="236891531#1" to="235467868"/>
    <trip id="veh133" type="veh_passenger" depart="323.29" departLane="best" from="121466671#1" to="23920457#0"/>
    <trip id="veh134" type="veh_passenger" depart="325.72" departLane="best" from="-23920457#1" to="121900398#3"/>
    <trip id="veh137" type="veh_passenger" depart="333.01" departLane="best" from="184548836#2" to="121900420#3"/>
    <trip id="veh139" type="veh_passenger" depart="337.87" departLane="best" from="23920536" to="121900398#1"/>
    <trip id="veh140" type="veh_passenger" depart="340.31" departLane="best" from="26801665#1" to="235467866#2"/>
    <trip id="veh141" type="veh_passenger" depart="342.74" departLane="best" from="184548841#1" to="-109156508"/>
    <trip id="veh142" type="veh_passenger" depart="345.17" departLane="best" from="-192110343#0" to="35276186#0"/>
    <trip id="veh145" type="veh_passenger" depart="352.46" departLane="best" departSpeed="max" from="-26593222#1" to="-23949659#3"/>
    <trip id="veh147" type="veh_passenger" depart="357.32" departLane="best" from="124046247#3" to="30060427#1"/>
    <trip id="veh148" type="veh_passenger" depart="359.75" departLane="best" from="367158433" to="108881072#1"/>
    <trip id="veh149" type="veh_passenger" depart="362.18" departLane="best" from="116867746#1" to="-23764797"/>
    <trip id="veh150" type="veh_passenger" depart="364.61" departLane="best" from="27136148#0" to="35276186#1"/>
    <trip id="veh151" type="veh_passenger" depart="367.04" departLane="best" from="177923621#2" to="23920668#1"/>
    <trip id="veh152" type="veh_passenger" depart="369.47" departLane="best" from="-26801864#0" to="653537935"/>
    <trip id="veh154" type="veh_passenger" depart="374.34" departLane="best" from="27159733#0" to="35275708"/>
    <trip id="veh155" type="veh_passenger" depart="376.77" departLane="best" from="121466672#1" to="-26801927#2"/>
    <trip id="veh156" type="veh_passenger" depart="379.20" departLane="best" from="124046250#2" to="653537935"/>
    <trip id="veh157" type="veh_passenger" depart="381.63" departLane="best" from="27159200#3" to="30060635"/>
    <trip id="veh158" type="veh_passenger" depart="384.06" departLane="best" from="-27159614" to="121900398#8"/>
    <trip id="veh159" type="veh_passenger" depart="386.49" departLane="best" from="27136281#2" to="23919598#3"/>
    <trip id="veh160" type="veh_passenger" depart="388.92" departLane="best" from="293598414#2" to="30060368"/>
    <trip id="veh161" type="veh_passenger" depart="391.35" departLane="best" departSpeed="max" from="-96250614#1" to="27314126"/>
    <trip id="veh162" type="veh_passenger" depart="393.78" departLane="best" from="189763729" to="124046250#4"/>
    <trip id="veh163" type="veh_passenger" depart="396.21" departLane="best" from="27159134" to="-118762904#1"/>
    <trip id="veh164" type="veh_passenger" depart="398.64" departLane="best" from="-121466671#1" to="100006590#4"/>
    <trip id="veh165" type="veh_passenger" depart="401.07" departLane="best" from="124046247#6" to="30060635"/>
    <trip id="veh166" type="veh_passenger" depart="403.51" departLane="best" from="93814015#1" to="121916628"/>
    <trip id="veh167" type="veh_passenger" depart="405.94" departLane="best" from="23920567#1" to="184454098"/>
    <trip id="veh169" type="veh_passenger" depart="410.80" departLane="best" from="68025423#1" to="23920592#1"/>
    <trip id="veh170" type="veh_passenger" depart="413.23" departLane="best" from="949327334" to="-68025428#1"/>
    <trip id="veh172" type="veh_passenger" depart="418.09" departLane="best" from="-23765877#1" to="-189536618#0"/>
    <trip id="veh173" type="veh_passenger" depart="420.52" departLane="best" from="26593212#1" to="124516093#0"/>
    <trip id="veh174" type="veh_passenger" depart="422.95" departLane="best" from="23919427#3" to="-20894092#1"/>
    <trip id="veh175" type="veh_passenger" depart="425.38" departLane="best" from="147478033" to="23919427#2"/>
    <trip id="veh176" type="veh_passenger" depart="427.81" departLane="best" from="118762899" to="26593213#0"/>
    <trip id="veh179" type="veh_passenger" depart="435.10" departLane="best" from="-26801864#0" to="23949659#0"/>
    <trip id="veh180" type="veh_passenger" depart="437.54" departLane="best" departSpeed="max" from="143383298" to="-197065746"/>
    <trip id="veh181" type="veh_passenger" depart="439.97" departLane="best" from="23920886#2" to="130248357#0"/>
    <trip id="veh184" type="veh_passenger" depart="447.26" departLane="best" departSpeed="max" from="122227145#0" to="184548839"/>
    <trip id="veh185" type="veh_passenger" depart="449.69" departLane="best" from="169542377#1" to="-124046241#1"/>
    <trip id="veh186" type="veh_passenger" depart="452.12" departLane="best" from="-23920670#5" to="184549842#2"/>
    <trip id="veh187" type="veh_passenger" depart="454.55" departLane="best" from="68025425#1" to="23951181#4"/>
    <trip id="veh189" type="veh_passenger" depart="459.41" departLane="best" from="121900419#2" to="235115228#2"/>
    <trip id="veh191" type="veh_passenger" depart="464.27" departLane="best" from="184548845" to="23919500#0"/>
    <trip id="veh192" type="veh_passenger" depart="466.70" departLane="best" from="23920687#0" to="201611853"/>
    <trip id="veh193" type="veh_passenger" depart="469.14" departLane="best" from="184680513#0" to="-109156508"/>
    <trip id="veh194" type="veh_passenger" depart="471.57" departLane="best" from="-192110348#1" to="38145799#0"/>
    <trip id="veh195" type="veh_passenger" depart="474.00" departLane="best" from="27159200#1" to="-38145461#1"/>
    <trip id="veh196" type="veh_passenger" depart="476.43" departLane="best" from="-202304095" to="20900316#1"/>
    <trip id="veh197" type="veh_passenger" depart="478.86" departLane="best" from="121466673#0" to="130248357#1"/>
    <trip id="veh198" type="veh_passenger" depart="481.29" departLane="best" from="27313116" to="26958298#1"/>
    <trip id="veh199" type="veh_passenger" depart="483.72" departLane="best" departSpeed="max" from="23921196" to="118741430"/>
    <trip id="veh200" type="veh_passenger" depart="486.15" departLane="best" from="551466299" to="121466674#1"/>
    <trip id="veh201" type="veh_passenger" depart="488.58" departLane="best" from="28108535" to="-201786965"/>
    <trip id="veh202" type="veh_passenger" depart="491.01" departLane="best" from="-179048985" to="236891522"/>
    <trip id="veh203" type="veh_passenger" depart="493.44" departLane="best" departSpeed="max" from="-35275708" to="247815598"/>
    <trip id="veh204" type="veh_passenger" depart="495.87" departLane="best" from="202304088" to="121466670#2"/>
    <trip id="veh205" type="veh_passenger" depart="498.30" departLane="best" from="23920815#0" to="106877653#1"/>
    <trip id="veh207" type="veh_passenger" depart="503.17" departLane="best" from="236891531#1" to="184680513#1"/>
    <trip id="veh208" type="veh_passenger" depart="505.60" departLane="best" from="27313556#1" to="76721787"/>
    <trip id="veh209" type="veh_passenger" depart="508.03" departLane="best" from="202591022#2" to="-184548843"/>
    <trip id="veh210" type="veh_passenger" depart="510.46" departLane="best" from="116867746#0" to="293598414#3"/>
    <trip id="veh212" type="veh_passenger" depart="515.32" departLane="best" from="23920913#6" to="96250600#0"/>
    <trip id="veh214" type="veh_passenger" depart="520.18" departLane="best" from="30068380#0" to="23920567#1"/>
    <trip id="veh218" type="veh_passenger" depart="529.90" departLane="best" from="26958298#5" to="212865182"/>
    <trip id="veh219" type="veh_passenger" depart="532.34" departLane="best" from="23920148#3" to="121900420#0"/>
    <trip id="veh220" type="veh_passenger" depart="534.77" departLane="best" from="-192110354" to="122227142"/>
    <trip id="veh221" type="veh_passenger" depart="537.20" departLane="best" from="121466671#1" to="128676648#1"/>
    <trip id="veh224" type="veh_passenger" depart="544.49" departLane="best" departSpeed="max" from="24163774" to="-192110346"/>
    <trip id="veh226" type="veh_passenger" depart="549.35" departLane="best" from="184454098" to="38280082"/>
    <trip id="veh227" type="veh_passenger" depart="551.78" departLane="best" from="235467869" to="246167819"/>
    <trip id="veh229" type="veh_passenger" depart="556.64" departLane="best" from="146187246#0" to="-106877675"/>
    <trip id="veh230" type="veh_passenger" depart="559.07" departLane="best" from="128676657#1" to="26958298#4"/>
    <trip id="veh231" type="veh_passenger" depart="561.50" departLane="best" from="28138417#3" to="76715036#0"/>
    <trip id="veh232" type="veh_passenger" depart="563.93" departLane="best" from="184454094" to="26958277#0"/>
    <trip id="veh234" type="veh_passenger" depart="568.80" departLane="best" from="96250609#2" to="114885425#0"/>
    <trip id="veh235" type="veh_passenger" depart="571.23" departLane="best" from="184549842#1" to="-124034725#1"/>
    <trip id="veh236" type="veh_passenger" depart="573.66" departLane="best" from="124516079#0" to="121900416#0"/>
    <trip id="veh237" type="veh_passenger" depart="576.09" departLane="best" from="169787951" to="-293598413#1"/>
    <trip id="veh238" type="veh_passenger" depart="578.52" departLane="best" from="26593212#3" to="-23949659#3"/>
    <trip id="veh239" type="veh_passenger" depart="580.95" departLane="best" from="23920132#1" to="-122225430"/>
    <trip id="veh240" type="veh_passenger" depart="583.38" departLane="best" from="-158787937#0" to="236891531#0"/>
    <trip id="veh241" type="veh_passenger" depart="585.81" departLane="best" from="121466672#4" to="23920994"/>
    <trip id="veh242" type="veh_passenger" depart="588.24" departLane="best" departSpeed="max" from="-23949491" to="95467760"/>
    <trip id="veh243" type="veh_passenger" depart="590.67" departLane="best" departSpeed="max" from="-177923620#1" to="169542378"/>
    <trip id="veh244" type="veh_passenger" depart="593.10" departLane="best" from="786939740" to="129115597#1"/>
    <trip id="veh246" type="veh_passenger" depart="597.97" departLane="best" departSpeed="max" from="1186686203" to="23920913#3"/>
    <trip id="veh248" type="veh_passenger" depart="602.83" departLane="best" from="97848368#1" to="144912410#0"/>
    <trip id="veh249" type="veh_passenger" depart="605.26" departLane="best" from="-23920670#0" to="27159200#10"/>
    <trip id="veh250" type="veh_passenger" depart="607.69" departLane="best" from="23920670#4" to="26958298#5"/>
    <trip id="veh252" type="veh_passenger" depart="612.55" departLane="best" from="1208915584" to="-27159820"/>
    <trip id="veh253" type="veh_passenger" depart="614.98" departLane="best" from="-23920670#2" to="23949512"/>
    <trip id="veh254" type="veh_passenger" depart="617.41" departLane="best" from="220538943#8" to="114885422#1"/>
    <trip id="veh255" type="veh_passenger" depart="619.84" departLane="best" from="23951242#1" to="27136148#0"/>
    <trip id="veh256" type="veh_passenger" depart="622.27" departLane="best" departSpeed="max" from="-27136321#1" to="23920509#4"/>
    <trip id="veh257" type="veh_passenger" depart="624.70" departLane="best" from="26802008" to="122225426"/>
    <trip id="veh258" type="veh_passenger" depart="627.13" departLane="best" from="27313165#1" to="93814015#0"/>
    <trip id="veh259" type="veh_passenger" depart="629.57" departLane="best" from="-23765877#0" to="121471398#2"/>
    <trip id="veh261" type="veh_passenger" depart="634.43" departLane="best" from="76715042#1" to="184454096"/>
    <trip id="veh262" type="veh_passenger" depart="636.86" departLane="best" from="-23949659#0" to="23920815#0"/>
    <trip id="veh263" type="veh_passenger" depart="639.29" departLane="best" from="121900418" to="27136290#2"/>
    <trip id="veh264" type="veh_passenger" depart="641.72" departLane="best" from="28111461" to="23920305#3"/>
    <trip id="veh265" type="veh_passenger" depart="644.15" departLane="best" from="-23920592#4" to="95676492"/>
    <trip id="veh266" type="veh_passenger" depart="646.58" departLane="best" from="27136190#2" to="144912408#0"/>
    <trip id="veh267" type="veh_passenger" depart="649.01" departLane="best" from="184548842#0" to="158787937#0"/>
    <trip id="veh268" type="veh_passenger" depart="651.44" departLane="best" from="202564599#2" to="143383297"/>
    <trip id="veh270" type="veh_passenger" depart="656.30" departLane="best" from="-236891530" to="-891590309#1"/>
    <trip id="veh271" type="veh_passenger" depart="658.73" departLane="best" from="23920509#2" to="146187246#0"/>
    <trip id="veh272" type="veh_passenger" depart="661.17" departLane="best" from="26665621" to="93814015#1"/>
    <trip id="veh273" type="veh_passenger" depart="663.60" departLane="best" from="121466670#1" to="27313348#1"/>
    <trip id="veh275" type="veh_passenger" depart="668.46" departLane="best" from="121466668" to="30059421"/>
    <trip id="veh276" type="veh_passenger" depart="670.89" departLane="best" from="27314085#2" to="-211541524"/>
    <trip id="veh277" type="veh_passenger" depart="673.32" departLane="best" from="30060427#1" to="-121466670#2"/>
    <trip id="veh278" type="veh_passenger" depart="675.75" departLane="best" from="190310795#3" to="23920541#2"/>
    <trip id="veh279" type="veh_passenger" depart="678.18" departLane="best" from="144943401" to="124034725#0"/>
    <trip id="veh281" type="veh_passenger" depart="683.04" departLane="best" from="891590309#0" to="27159820"/>
    <trip id="veh282" type="veh_passenger" depart="685.47" departLane="best" from="124516087" to="35275707"/>
    <trip id="veh285" type="veh_passenger" depart="692.76" departLane="best" from="-202304096" to="26785946#1"/>
    <trip id="veh287" type="veh_passenger" depart="697.63" departLane="best" from="23949659#0" to="23920994"/>
    <trip id="veh288" type="veh_passenger" depart="700.06" departLane="best" departSpeed="max" from="201786965" to="27159490#0"/>
    <trip id="veh289" type="veh_passenger" depart="702.49" departLane="best" departSpeed="max" from="-212865182" to="116867746#1"/>
    <trip id="veh290" type="veh_passenger" depart="704.92" departLane="best" from="23949659#1" to="124046250#6"/>
    <trip id="veh291" type="veh_passenger" depart="707.35" departLane="best" from="235467866#0" to="202304095"/>
    <trip id="veh293" type="veh_passenger" depart="712.21" departLane="best" from="26801927#2" to="130248357#0"/>
    <trip id="veh294" type="veh_passenger" depart="714.64" departLane="best" from="240046398" to="121900416#2"/>
    <trip id="veh295" type="veh_passenger" depart="717.07" departLane="best" from="-1186686202#1" to="23920670#0"/>
    <trip id="veh296" type="veh_passenger" depart="719.50" departLane="best" departSpeed="max" from="-35275707" to="-23920633#4"/>
    <trip id="veh298" type="veh_passenger" depart="724.36" departLane="best" from="299814438" to="114885419"/>
    <trip id="veh299" type="veh_passenger" depart="726.80" departLane="best" from="196784143" to="26801448"/>
    <trip id="veh300" type="veh_passenger" depart="729.23" departLane="best" from="95199590#1" to="215479494#3"/>
    <trip id="veh301" type="veh_passenger" depart="731.66" departLane="best" from="-121471398#2" to="-236891530"/>
    <trip id="veh302" type="veh_passenger" depart="734.09" departLane="best" from="27314357" to="-1186686203"/>
    <trip id="veh304" type="veh_passenger" depart="738.95" departLane="best" from="26802188" to="235467868"/>
    <trip id="veh305" type="veh_passenger" depart="741.38" departLane="best" from="23951207#4" to="-23949382#4"/>
    <trip id="veh307" type="veh_passenger" depart="746.24" departLane="best" from="293598414#2" to="23901631#1"/>
    <trip id="veh308" type="veh_passenger" depart="748.67" departLane="best" from="190502847#2" to="189763730"/>
    <trip id="veh309" type="veh_passenger" depart="751.10" departLane="best" from="-293598413#0" to="-184548850#1"/>
    <trip id="veh311" type="veh_passenger" depart="755.96" departLane="best" from="27313281#2" to="184548835"/>
    <trip id="veh312" type="veh_passenger" depart="758.40" departLane="best" from="-190344685" to="190502711"/>
    <trip id="veh313" type="veh_passenger" depart="760.83" departLane="best" from="178854783#0" to="-27136329#0"/>
    <trip id="veh314" type="veh_passenger" depart="763.26" departLane="best" from="27313116" to="23920633#1"/>