<?xml version="1.0" encoding="UTF-8"?>

<!-- generated on 2024-09-03 10:36:53.722021 by osmWebWizard.py v1_20_0+0002-343658e7c64
<configuration>
    <net-file value="C:\Users\cri98\Sumo\2024-09-03-10-36-28\osm.net.xml.gz"/>
    <output-trip-file value="C:\Users\cri98\Sumo\2024-09-03-10-36-28\osm.passenger.trips.xml"/>
    <route-file value="C:\Users\cri98\Sumo\2024-09-03-10-36-28\osm.passenger.rou.xml"/>
    <prefix value="veh"/>
    <trip-attributes value="departLane=&quot;best&quot;"/>
    <fringe-start-attributes value="departSpeed=&quot;max&quot;"/>
    <vehicle-class value="passenger"/>
    <lanes value="True"/>
    <fringe-factor value="5"/>
    <allow-fringe.min-length value="1000.0"/>
    <via-edge-types value="highway.motorway,highway.motorway_link,highway.trunk_link,highway.primary_link,highway.secondary_link,highway.tertiary_link"/>
    <min-distance value="300.0"/>
    <min-distance.fringe value="10.0"/>
    <remove-loops value="True"/>
    <validate value="True"/>
    <insertion-density value="12.0"/>
</configuration>
-->

<!-- generated on 2024-09-03 10:36:53 by Eclipse SUMO duarouter Version 1.20.0
<configuration xmlns:xsi="http://www.w3.org/2001/XMLSchema-instance" xsi:noNamespaceSchemaLocation="http://sumo.dlr.de/xsd/duarouterConfiguration.xsd">

    <input>
        <net-file value="C:\Users\cri98\Sumo\2024-09-03-10-36-28\osm.net.xml.gz"/>
        <route-files value="C:\Users\cri98\Sumo\2024-09-03-10-36-28\osm.passenger.trips.xml"/>
    </input>

    <output>
        <output-file value="C:\Users\cri98\Sumo\2024-09-03-10-36-28\osm.passenger.trips.xml.tmp"/>
        <alternatives-output value="NUL"/>
        <write-trips value="true"/>
    </output>

    <processing>
        <remove-loops value="true"/>
    </processing>

    <time>
        <begin value="0.0"/>
        <end value="3600.0"/>
    </time>

    <report>
        <no-warnings value="true"/>
        <ignore-errors value="true"/>
        <no-step-log value="true"/>
    </report>

</configuration>
-->

<routes xmlns:xsi="http://www.w3.org/2001/XMLSchema-instance" xsi:noNamespaceSchemaLocation="http://sumo.dlr.de/xsd/routes_file.xsd">
    <vType id="veh_passenger" vClass="passenger"/>
    <trip id="veh0" type="veh_passenger" depart="0.00" departLane="best" from="444374147#0" to="23213853"/>
    <trip id="veh1" type="veh_passenger" depart="2.43" departLane="best" from="219362015#0" to="167920360#0"/>
    <trip id="veh2" type="veh_passenger" depart="4.85" departLane="best" from="601303882#8" to="5209181#3"/>
    <trip id="veh3" type="veh_passenger" depart="7.28" departLane="best" from="762793106#2" to="742016387#2"/>
    <trip id="veh4" type="veh_passenger" depart="9.70" departLane="best" departSpeed="max" from="249412138#0" to="-263924579"/>
    <trip id="veh5" type="veh_passenger" depart="12.13" departLane="best" from="167920360#0" to="299498424#3"/>
    <trip id="veh8" type="veh_passenger" depart="19.40" departLane="best" from="167920360#1" to="32227388"/>
    <trip id="veh9" type="veh_passenger" depart="21.83" departLane="best" from="-286067599#6" to="10971769#0"/>
    <trip id="veh10" type="veh_passenger" depart="24.25" departLane="best" from="-66868004#0" to="580088092#3"/>
    <trip id="veh11" type="veh_passenger" depart="26.68" departLane="best" from="23183273#1" to="10976421#0"/>
    <trip id="veh12" type="veh_passenger" depart="29.10" departLane="best" from="86343497#3" to="23183273#1"/>
    <trip id="veh15" type="veh_passenger" depart="36.38" departLane="best" from="66868013#2" to="259803255#2"/>
    <trip id="veh18" type="veh_passenger" depart="43.66" departLane="best" from="-68612588#1" to="429282752#3"/>
    <trip id="veh20" type="veh_passenger" depart="48.51" departLane="best" from="52493436#8" to="-435483353"/>
    <trip id="veh21" type="veh_passenger" depart="50.93" departLane="best" from="168737311#2" to="221139568"/>
    <trip id="veh24" type="veh_passenger" depart="58.21" departLane="best" from="440980570#0" to="23184216#0"/>
    <trip id="veh26" type="veh_passenger" depart="63.06" departLane="best" from="207979566#5" to="81797138#2"/>
    <trip id="veh27" type="veh_passenger" depart="65.48" departLane="best" from="449255481#6" to="384593010#2"/>
    <trip id="veh28" type="veh_passenger" depart="67.91" departLane="best" from="10976954#9" to="634252644#4"/>
    <trip id="veh29" type="veh_passenger" depart="70.33" departLane="best" from="10976435#0" to="23200007"/>
    <trip id="veh30" type="veh_passenger" depart="72.76" departLane="best" from="913407769" to="48651837"/>
    <trip id="veh31" type="veh_passenger" depart="75.18" departLane="best" from="311453391#7" to="52493437#2"/>
    <trip id="veh32" type="veh_passenger" depart="77.61" departLane="best" from="702078731#1" to="-664266078#5"/>
    <trip id="veh33" type="veh_passenger" depart="80.04" departLane="best" from="168737311#6" to="-263927241#0"/>
    <trip id="veh34" type="veh_passenger" depart="82.46" departLane="best" from="155448532#1" to="82682796#0"/>
    <trip id="veh35" type="veh_passenger" depart="84.89" departLane="best" from="741087752" to="23182767#0"/>
    <trip id="veh36" type="veh_passenger" depart="87.31" departLane="best" from="789816195#2" to="284241337#1"/>
    <trip id="veh38" type="veh_passenger" depart="92.16" departLane="best" departSpeed="max" from="31767642#0" to="789796816#4"/>
    <trip id="veh39" type="veh_passenger" depart="94.59" departLane="best" from="23216554#1" to="167907737#2"/>
    <trip id="veh40" type="veh_passenger" depart="97.01" departLane="best" from="972690968#1" to="299500105#2"/>
    <trip id="veh41" type="veh_passenger" depart="99.44" departLane="best" from="715534866#3" to="-435483360"/>
    <trip id="veh44" type="veh_passenger" depart="106.71" departLane="best" departSpeed="max" from="-58704889#1" to="23213862"/>
    <trip id="veh46" type="veh_passenger" depart="111.56" departLane="best" from="-899624046" to="734712544#6"/>
    <trip id="veh47" type="veh_passenger" depart="113.99" departLane="best" from="10976435#1" to="601303884"/>
    <trip id="veh49" type="veh_passenger" depart="118.84" departLane="best" from="207979566#5" to="48651837"/>
    <trip id="veh50" type="veh_passenger" depart="121.27" departLane="best" departSpeed="max" from="907161584#1" to="260824573#0"/>
    <trip id="veh52" type="veh_passenger" depart="126.12" departLane="best" from="741087752" to="194200146#1"/>
    <trip id="veh54" type="veh_passenger" depart="130.97" departLane="best" from="266067968#0" to="751911373#0"/>
    <trip id="veh55" type="veh_passenger" depart="133.39" departLane="best" departSpeed="max" from="222942436#0" to="48650461#0"/>
    <trip id="veh56" type="veh_passenger" depart="135.82" departLane="best" from="33878745" to="10976009#3"/>
    <trip id="veh58" type="veh_passenger" depart="140.67" departLane="best" from="652493999#0" to="299644700#5"/>
    <trip id="veh61" type="veh_passenger" depart="147.94" departLane="best" from="741245823#1" to="70284590#1"/>
    <trip id="veh63" type="veh_passenger" depart="152.79" departLane="best" from="741245822#0" to="838111477"/>
    <trip id="veh67" type="veh_passenger" depart="162.50" departLane="best" from="286070634#7" to="315709444#0"/>
    <trip id="veh68" type="veh_passenger" depart="164.92" departLane="best" from="207979566#1" to="760071189#1"/>
    <trip id="veh69" type="veh_passenger" depart="167.35" departLane="best" from="249412138#1" to="15412852"/>
    <trip id="veh70" type="veh_passenger" depart="169.77" departLane="best" from="299644700#5" to="259803255#2"/>
    <trip id="veh71" type="veh_passenger" depart="172.20" departLane="best" departSpeed="max" from="1175120417" to="229732628"/>
    <trip id="veh72" type="veh_passenger" depart="174.62" departLane="best" from="952048768#3" to="49747812"/>
    <trip id="veh73" type="veh_passenger" depart="177.05" departLane="best" from="52493436#13" to="299506410#1"/>
    <trip id="veh75" type="veh_passenger" depart="181.90" departLane="best" from="23182990#1" to="32077250#0"/>
    <trip id="veh76" type="veh_passenger" depart="184.32" departLane="best" from="168737311#7" to="167907746#0"/>
    <trip id="veh78" type="veh_passenger" depart="189.17" departLane="best" from="168737311#4" to="789816195#2"/>
    <trip id="veh79" type="veh_passenger" depart="191.60" departLane="best" from="722801986" to="61072220"/>
    <trip id="veh80" type="veh_passenger" depart="194.02" departLane="best" from="168914464#0" to="-52080450"/>
    <trip id="veh81" type="veh_passenger" depart="196.45" departLane="best" from="167907737#0" to="10741731#2"/>
    <trip id="veh82" type="veh_passenger" depart="198.88" departLane="best" from="81783130#1" to="31767602#0"/>
    <trip id="veh83" type="veh_passenger" depart="201.30" departLane="best" from="-286067599#8" to="66868013#5"/>
    <trip id="veh84" type="veh_passenger" depart="203.73" departLane="best" from="66868013#3" to="11031665"/>
    <trip id="veh85" type="veh_passenger" depart="206.15" departLane="best" from="-763490839#1" to="260124785#3"/>
    <trip id="veh86" type="veh_passenger" depart="208.58" departLane="best" from="249412140#1" to="286067599#7"/>
    <trip id="veh87" type="veh_passenger" depart="211.00" departLane="best" from="601290889#5" to="5209166#4"/>
    <trip id="veh88" type="veh_passenger" depart="213.43" departLane="best" from="907519290" to="-904572342#0"/>
    <trip id="veh89" type="veh_passenger" depart="215.85" departLane="best" from="23216593#2" to="23183366#9"/>
    <trip id="veh90" type="veh_passenger" depart="218.28" departLane="best" departSpeed="max" from="722947723" to="173394350#0"/>
    <trip id="veh91" type="veh_passenger" depart="220.70" departLane="best" from="11031664#5" to="280010493#2"/>
    <trip id="veh93" type="veh_passenger" depart="225.55" departLane="best" from="189063912#0" to="80404724#12"/>
    <trip id="veh95" type="veh_passenger" depart="230.40" departLane="best" from="311408820#1" to="449488830#1"/>
    <trip id="veh97" type="veh_passenger" depart="235.26" departLane="best" from="87082462#1" to="815849127#3"/>
    <trip id="veh98" type="veh_passenger" depart="237.68" departLane="best" from="704278581" to="10976954#7"/>
    <trip id="veh99" type="veh_passenger" depart="240.11" departLane="best" departSpeed="max" from="295056184" to="155448532#0"/>
    <trip id="veh100" type="veh_passenger" depart="242.53" departLane="best" from="23216593#10" to="49864483#0"/>
    <trip id="veh101" type="veh_passenger" depart="244.96" departLane="best" from="-23199937" to="909129701#0"/>
    <trip id="veh102" type="veh_passenger" depart="247.38" departLane="best" from="207979566#2" to="66868013#3"/>
    <trip id="veh104" type="veh_passenger" depart="252.23" departLane="best" from="311453391#4" to="601303882#1"/>
    <trip id="veh105" type="veh_passenger" depart="254.66" departLane="best" from="10976009#0" to="222941080#6"/>
    <trip id="veh106" type="veh_passenger" depart="257.08" departLane="best" from="865301647#0" to="318678267#11"/>
    <trip id="veh108" type="veh_passenger" depart="261.93" departLane="best" from="-49795118#2" to="32015424"/>
    <trip id="veh109" type="veh_passenger" depart="264.36" departLane="best" from="-298296536#1" to="722947727#1"/>
    <trip id="veh110" type="veh_passenger" depart="266.78" departLane="best" from="10976420#4" to="86351768#7"/>
    <trip id="veh112" type="veh_passenger" depart="271.63" departLane="best" from="32077250#0" to="5209181#3"/>
    <trip id="veh114" type="veh_passenger" depart="276.49" departLane="best" from="762514801#3" to="170981120#0"/>
    <trip id="veh117" type="veh_passenger" depart="283.76" departLane="best" from="299506410#0" to="81783130#1"/>
    <trip id="veh118" type="veh_passenger" depart="286.19" departLane="best" departSpeed="max" from="1264730558#0" to="601294004"/>
    <trip id="veh119" type="veh_passenger" depart="288.61" departLane="best" from="168914464#0" to="23216438"/>
    <trip id="veh121" type="veh_passenger" depart="293.46" departLane="best" from="226869337#0" to="64094754#3"/>
    <trip id="veh122" type="veh_passenger" depart="295.89" departLane="best" from="664266078#0" to="284241336#5"/>
    <trip id="veh123" type="veh_passenger" depart="298.31" departLane="best" from="972965169" to="971719836"/>
    <trip id="veh124" type="veh_passenger" depart="300.74" departLane="best" from="664266078#3" to="15412852"/>
    <trip id="veh125" type="veh_passenger" depart="303.16" departLane="best" from="207979566#2" to="815855465"/>
    <trip id="veh126" type="veh_passenger" depart="305.59" departLane="best" from="32245113#0" to="762793106#0"/>
    <trip id="veh127" type="veh_passenger" depart="308.01" departLane="best" departSpeed="max" from="23184187#0" to="10976429#2"/>
    <trip id="veh128" type="veh_passenger" depart="310.44" departLane="best" from="693478102#1" to="601290886#1"/>
    <trip id="veh130" type="veh_passenger" depart="315.29" departLane="best" from="45878519" to="-10971769#5"/>
    <trip id="veh131" type="veh_passenger" depart="317.72" departLane="best" departSpeed="max" from="48604174" to="81797144#2"/>
    <trip id="veh133" type="veh_passenger" depart="322.57" departLane="best" departSpeed="max" from="-892627320" to="31616961#0"/>
    <trip id="veh134" type="veh_passenger" depart="324.99" departLane="best" from="580088092#2" to="-1203170721#1"/>
    <trip id="veh136" type="veh_passenger" depart="329.84" departLane="best" departSpeed="max" from="295056184" to="789816195#2"/>
    <trip id="veh137" type="veh_passenger" depart="332.27" departLane="best" from="702087350" to="-82682796#1"/>
    <trip id="veh140" type="veh_passenger" depart="339.54" departLane="best" from="440988201" to="194100444#1"/>
    <trip id="veh142" type="veh_passenger" depart="344.39" departLane="best" from="254731664#2" to="-10976435#0"/>
    <trip id="veh143" type="veh_passenger" depart="346.82" departLane="best" departSpeed="max" from="-66868004#1" to="-763490838#0"/>
    <trip id="veh144" type="veh_passenger" depart="349.24" departLane="best" departSpeed="max" from="789786771#0" to="311408820#9"/>
    <trip id="veh145" type="veh_passenger" depart="351.67" departLane="best" from="693478102#2" to="32015255#1"/>
    <trip id="veh146" type="veh_passenger" depart="354.10" departLane="best" from="10971765" to="-31767621"/>
    <trip id="veh148" type="veh_passenger" depart="358.95" departLane="best" from="-664266078#3" to="734712544#6"/>
    <trip id="veh149" type="veh_passenger" depart="361.37" departLane="best" from="776858693#1" to="150644407"/>
    <trip id="veh150" type="veh_passenger" depart="363.80" departLane="best" from="189063912#0" to="907161586"/>
    <trip id="veh151" type="veh_passenger" depart="366.22" departLane="best" from="656676442#2" to="774933623#0"/>
    <trip id="veh156" type="veh_passenger" depart="378.35" departLane="best" from="23182838#2" to="815855464#1"/>
    <trip id="veh157" type="veh_passenger" depart="380.77" departLane="best" departSpeed="max" from="664511607" to="741245822#1"/>
    <trip id="veh158" type="veh_passenger" depart="383.20" departLane="best" from="66868032#1" to="207971472#0"/>
    <trip id="veh160" type="veh_passenger" depart="388.05" departLane="best" from="168725549#0" to="693478102#0"/>
    <trip id="veh162" type="veh_passenger" depart="392.90" departLane="best" from="664238682" to="168725561#0"/>
    <trip id="veh164" type="veh_passenger" depart="397.75" departLane="best" from="23182798#1" to="741245823#0"/>
    <trip id="veh166" type="veh_passenger" depart="402.60" departLane="best" from="44463543#1" to="23216593#11"/>
    <trip id="veh167" type="veh_passenger" depart="405.03" departLane="best" from="907161584#0" to="299656283"/>
    <trip id="veh169" type="veh_passenger" depart="409.88" departLane="best" from="883118289#0" to="1101347640#1"/>
    <trip id="veh170" type="veh_passenger" depart="412.30" departLane="best" from="86438973#0" to="207891571#1"/>
    <trip id="veh171" type="veh_passenger" depart="414.73" departLane="best" departSpeed="max" from="-899638870#1" to="260824573#0"/>
    <trip id="veh172" type="veh_passenger" depart="417.15" departLane="best" from="601290889#4" to="23182767#0"/>
    <trip id="veh173" type="veh_passenger" depart="419.58" departLane="best" from="324752782#1" to="299500105#5"/>
    <trip id="veh177" type="veh_passenger" depart="429.28" departLane="best" from="299644700#2" to="601303882#8"/>
    <trip id="veh178" type="veh_passenger" depart="431.71" departLane="best" from="23183970#1" to="61072220"/>
    <trip id="veh180" type="veh_passenger" depart="436.56" departLane="best" from="225790253#0" to="722947724#1"/>
    <trip id="veh181" type="veh_passenger" depart="438.98" departLane="best" from="580088093#0" to="224025734#1"/>
    <trip id="veh183" type="veh_passenger" depart="443.83" departLane="best" from="23216593#15" to="384593010#2"/>
    <trip id="veh184" type="veh_passenger" depart="446.26" departLane="best" from="1027454994#1" to="246015927"/>
    <trip id="veh185" type="veh_passenger" depart="448.68" departLane="best" departSpeed="max" from="789786771#0" to="419194293#2"/>
    <trip id="veh187" type="veh_passenger" depart="453.53" departLane="best" from="-101259304#1" to="219617988#0"/>
    <trip id="veh188" type="veh_passenger" depart="455.96" departLane="best" from="299514252#13" to="318678267#2"/>
    <trip id="veh189" type="veh_passenger" depart="458.38" departLane="best" from="45879106#0" to="286067598#5"/>
    <trip id="veh191" type="veh_passenger" depart="463.23" departLane="best" from="286070634#1" to="789816186#1"/>
    <trip id="veh192" type="veh_passenger" depart="465.66" departLane="best" from="664266078#3" to="10976960#5"/>
    <trip id="veh194" type="veh_passenger" depart="470.51" departLane="best" departSpeed="max" from="435483353" to="23182990#2"/>
    <trip id="veh195" type="veh_passenger" depart="472.94" departLane="best" from="678788076#1" to="64094754#0"/>
    <trip id="veh196" type="veh_passenger" depart="475.36" departLane="best" from="-49795118#2" to="168725546#0"/>
    <trip id="veh197" type="veh_passenger" depart="477.79" departLane="best" departSpeed="max" from="173394349#0" to="294492601#5"/>
    <trip id="veh200" type="veh_passenger" depart="485.06" departLane="best" from="115333530" to="580088092#0"/>
    <trip id="veh201" type="veh_passenger" depart="487.49" departLane="best" from="295083398#1" to="168914464#2"/>
    <trip id="veh202" type="veh_passenger" depart="489.91" departLane="best" from="465677796#1" to="-1030692605"/>
    <trip id="veh205" type="veh_passenger" depart="497.19" departLane="best" from="10976967#3" to="86343497#2"/>
    <trip id="veh206" type="veh_passenger" depart="499.61" departLane="best" from="299500105#6" to="-449255484"/>
    <trip id="veh207" type="veh_passenger" depart="502.04" departLane="best" from="189063912#0" to="722947724#2"/>
    <trip id="veh209" type="veh_passenger" depart="506.89" departLane="best" from="49288906" to="909645108"/>
    <trip id="veh211" type="veh_passenger" depart="511.74" departLane="best" from="762793105#1" to="401608893#2"/>
    <trip id="veh212" type="veh_passenger" depart="514.17" departLane="best" from="580088093#0" to="299498424#2"/>
    <trip id="veh213" type="veh_passenger" depart="516.59" departLane="best" from="687924321#0" to="311453391#5"/>
    <trip id="veh215" type="veh_passenger" depart="521.44" departLane="best" from="286070634#5" to="-193384535"/>
    <trip id="veh217" type="veh_passenger" depart="526.29" departLane="best" from="741721487#0" to="207979572#0"/>
    <trip id="veh219" type="veh_passenger" depart="531.14" departLane="best" from="207979572#1" to="23182796#2"/>
    <trip id="veh220" type="veh_passenger" depart="533.57" departLane="best" from="299644700#5" to="10741754#3"/>
    <trip id="veh221" type="veh_passenger" depart="535.99" departLane="best" from="168737311#8" to="571469975#1"/>
    <trip id="veh223" type="veh_passenger" depart="540.84" departLane="best" from="23216605#6" to="311408820#3"/>
    <trip id="veh224" type="veh_passenger" depart="543.27" departLane="best" from="24219951" to="1277946184#3"/>
    <trip id="veh225" type="veh_passenger" depart="545.70" departLane="best" departSpeed="max" from="31767642#0" to="580088092#0"/>
    <trip id="veh226" type="veh_passenger" depart="548.12" departLane="best" from="715534866#3" to="661079383#0"/>
    <trip id="veh227" type="veh_passenger" depart="550.55" departLane="best" from="23199941#2" to="-1063569622"/>
    <trip id="veh228" type="veh_passenger" depart="552.97" departLane="best" from="23183852#2" to="651185403#0"/>
    <trip id="veh229" type="veh_passenger" depart="555.40" departLane="best" from="711885233#4" to="86216513#3"/>
    <trip id="veh231" type="veh_passenger" depart="560.25" departLane="best" from="299657353#0" to="347093179#0"/>
    <trip id="veh232" type="veh_passenger" depart="562.67" departLane="best" from="167920360#1" to="167907737#2"/>
    <trip id="veh233" type="veh_passenger" depart="565.10" departLane="best" from="260124785#4" to="-263507072"/>
    <trip id="veh234" type="veh_passenger" depart="567.52" departLane="best" from="23182962" to="5209181#3"/>
    <trip id="veh235" type="veh_passenger" depart="569.95" departLane="best" from="23216593#8" to="10976954#5"/>
    <trip id="veh236" type="veh_passenger" depart="572.37" departLane="best" from="284241337#3" to="-31767621"/>
    <trip id="veh237" type="veh_passenger" depart="574.80" departLane="best" from="400607897#0" to="234440702"/>
    <trip id="veh238" type="veh_passenger" depart="577.22" departLane="best" from="23214030#0" to="31621981#1"/>
    <trip id="veh240" type="veh_passenger" depart="582.07" departLane="best" from="10741726#4" to="284241337#3"/>
    <trip id="veh242" type="veh_passenger" depart="586.93" departLane="best" from="155448532#2" to="23182838#2"/>
    <trip id="veh245" type="veh_passenger" depart="594.20" departLane="best" from="189099792#1" to="704278578#0"/>
    <trip id="veh247" type="veh_passenger" depart="599.05" departLane="best" from="978939565#2" to="23183852#8"/>
    <trip id="veh250" type="veh_passenger" depart="606.33" departLane="best" from="85392263#0" to="1155705752#4"/>
    <trip id="veh252" type="veh_passenger" depart="611.18" departLane="best" from="1016179784#0" to="5209166#0"/>
    <trip id="veh253" type="veh_passenger" depart="613.60" departLane="best" from="31619819#1" to="167907737#0"/>
    <trip id="veh255" type="veh_passenger" depart="618.45" departLane="best" from="10976954#3" to="384593008#0"/>
    <trip id="veh257" type="veh_passenger" depart="623.31" departLane="best" from="678788076#3" to="86438974#3"/>
    <trip id="veh258" type="veh_passenger" depart="625.73" departLane="best" departSpeed="max" from="-899638870#1" to="-23213958#2"/>
    <trip id="veh259" type="veh_passenger" depart="628.16" departLane="best" from="225790251#2" to="5209181#3"/>
    <trip id="veh260" type="veh_passenger" depart="630.58" departLane="best" from="86351768#1" to="23216541#0"/>
    <trip id="veh262" type="veh_passenger" depart="635.43" departLane="best" departSpeed="max" from="51161514" to="44463546"/>
    <trip id="veh263" type="veh_passenger" depart="637.86" departLane="best" from="-82682808#0" to="662180435"/>
    <trip id="veh264" type="veh_passenger" depart="640.28" departLane="best" from="704293238" to="327261700#0"/>
    <trip id="veh266" type="veh_passenger" depart="645.13" departLane="best" departSpeed="max" from="657730940#0" to="23183845#8"/>
    <trip id="veh267" type="veh_passenger" depart="647.56" departLane="best" from="-259803253" to="23199927#1"/>
    <trip id="veh268" type="veh_passenger" depart="649.98" departLane="best" from="298383050#1" to="23183371#3"/>
    <trip id="veh269" type="veh_passenger" depart="652.41" departLane="best" from="704278583" to="693488162"/>
    <trip id="veh270" type="veh_passenger" depart="654.83" departLane="best" from="-86216513#4" to="86351768#7"/>
    <trip id="veh271" type="veh_passenger" depart="657.26" departLane="best" from="440980570#0" to="299656284#0"/>
    <trip id="veh274" type="veh_passenger" depart="664.54" departLane="best" from="299644700#2" to="295081218#1"/>
    <trip id="veh275" type="veh_passenger" depart="666.96" departLane="best" from="260124785#3" to="634252646#4"/>
    <trip id="veh276" type="veh_passenger" depart="669.39" departLane="best" from="207979569#0" to="722947726"/>
    <trip id="veh277" type="veh_passenger" depart="671.81" departLane="best" from="687924321#0" to="-742016387#2"/>
    <trip id="veh278" type="veh_passenger" depart="674.24" departLane="best" from="742016387#2" to="168914464#2"/>
    <trip id="veh279" type="veh_passenger" depart="676.66" departLane="best" from="284241337#1" to="393398564#4"/>
    <trip id="veh280" type="veh_passenger" depart="679.09" departLane="best" from="23199938" to="-259803253"/>
    <trip id="veh281" type="veh_passenger" depart="681.51" departLane="best" from="704293239#0" to="1101347640#3"/>
    <trip id="veh282" type="veh_passenger" depart="683.94" departLane="best" from="155448532#2" to="678788076#6"/>
    <trip id="veh283" type="veh_passenger" depart="686.36" departLane="best" from="23183273#1" to="762793106#4"/>
    <trip id="veh285" type="veh_passenger" depart="691.21" departLane="best" from="-10976433#2" to="838111478#2"/>
    <trip id="veh287" type="veh_passenger" depart="696.06" departLane="best" departSpeed="max" from="295056184" to="651185404"/>
    <trip id="veh288" type="veh_passenger" depart="698.49" departLane="best" departSpeed="max" from="51161514" to="49288906"/>
    <trip id="veh289" type="veh_passenger" depart="700.92" departLane="best" from="295081213#2" to="678312865#0"/>
    <trip id="veh290" type="veh_passenger" depart="703.34" departLane="best" from="725187179#3" to="167907746#1"/>
    <trip id="veh292" type="veh_passenger" depart="708.19" departLane="best" departSpeed="max" from="299514252#1" to="250756985#1"/>
    <trip id="veh293" type="veh_passenger" depart="710.62" departLane="best" from="634248642#2" to="23182848#1"/>
    <trip id="veh294" type="veh_passenger" depart="713.04" departLane="best" from="52493436#13" to="207979566#5"/>
    <trip id="veh298" type="veh_passenger" depart="722.74" departLane="best" from="1101347640#3" to="160642301#1"/>
    <trip id="veh300" type="veh_passenger" depart="727.59" departLane="best" departSpeed="max" from="904572342#0" to="259803255#1"/>
    <trip id="veh302" type="veh_passenger" depart="732.44" departLane="best" from="-115333519#0" to="168725549#1"/>
    <trip id="veh304" type="veh_passenger" depart="737.29" departLane="best" from="299514252#2" to="207979569#3"/>
    <trip id="veh305" type="veh_passenger" depart="739.72" departLane="best" from="901645779#0" to="31616961#2"/>
    <trip id="veh306" type="veh_passenger" depart="742.15" departLane="best" from="5209166#2" to="1055910703"/>
    <trip id="veh307" type="veh_passenger" depart="744.57" departLane="best" from="725187180" to="298180723#2"/>
    <trip id="veh308" type="veh_passenger" depart="747.00" departLane="best" from="734707701#9" to="31767637#1"/>
    <trip id="veh309" type="veh_passenger" depart="749.42" departLane="best" from="286067598#0" to="789816195#0"/>
    <trip id="veh310" type="veh_passenger" depart="751.85" departLane="best" from="1101347640#2" to="-449901015"/>
    <trip id="veh311" type="veh_passenger" depart="754.27" departLane="best" from="82682785#0" to="294492610#1"/>
    <trip id="veh312" type="veh_passenger" depart="756.70" departLane="best" from="678788076#7" to="23216593#15"/>
    <trip id="veh315" type="veh_passenger" depart="763.97" departLane="best" from="66868037" to="224816471#0"/>
    <trip id="veh318" type="veh_passenger" depart="771.25" departLane="best" from="662180430#1" to="168725548#0"/>
    <trip id="veh321" type="veh_passenger" depart="778.53" departLane="best" from="916426354#1" to="225790244#0"/>
    <trip id="veh322" type="veh_passenger" depart="780.95" departLane="best" from="393398564#3" to="384593010#2"/>
    <trip id="veh324" type="veh_passenger" depart="785.80" departLane="best" departSpeed="max" from="1264730558#0" to="15412852"/>
    <trip id="veh325" type="veh_passenger" depart="788.23" departLane="best" departSpeed="max" from="471366143" to="10976429#0"/>
    <trip id="veh326" type="veh_passenger" depart="790.65" departLane="best" from="10976960#5" to="64094592"/>
    <trip id="veh327" type="veh_passenger" depart="793.08" departLane="best" departSpeed="max" from="-101352578" to="280010747#0"/>
    <trip id="veh329" type="veh_passenger" depart="797.93" departLane="best" from="168737311#8" to="601290888#10"/>
    <trip id="veh330" type="veh_passenger" depart="800.35" departLane="best" from="52493436#13" to="282433111#6"/>
    <trip id="veh331" type="veh_passenger" depart="802.78" departLane="best" departSpeed="max" from="51102931#0" to="80404724#12"/>
    <trip id="veh333" type="veh_passenger" depart="807.63" departLane="best" from="471366144#0" to="81783128#0"/>
    <trip id="veh334" type="veh_passenger" depart="810.05" departLane="best" from="249601208#0" to="311408820#8"/>
    <trip id="veh338" type="veh_passenger" depart="819.76" departLane="best" from="634252646#3" to="316770035#8"/>
    <trip id="veh343" type="veh_passenger" depart="831.88" departLane="best" from="-286067599#8" to="260124785#4"/>
    <trip id="veh344" type="veh_passenger" depart="834.31" departLane="best" from="23182769#1" to="173394350#0"/>
    <trip id="veh345" type="veh_passenger" depart="836.73" departLane="best" from="-715534866#4" to="86378192"/>
    <trip id="veh346" type="veh_passenger" depart="839.16" departLane="best" from="693478613#1" to="31767637#3"/>
    <trip id="veh349" type="veh_passenger" depart="846.43" departLane="best" from="286067598#6" to="498065659#0"/>
    <trip id="veh350" type="veh_passenger" depart="848.86" departLane="best" from="789816195#4" to="1101347640#3"/>
    <trip id="veh351" type="veh_passenger" depart="851.28" departLane="best" from="31767642#1" to="298180730"/>